[root]
type=Root
children=system
eventq_index=0
full_system=false
sim_quantum=0
time_sync_enable=false
time_sync_period=100000000
time_sync_spin_threshold=100000

[system]
type=System
children=clk_domain cpu dvfs_handler mem_ctrls ruby sys_port_proxy voltage_domain
boot_osflags=a
cache_line_size=64
clk_domain=system.clk_domain
eventq_index=0
init_param=0
kernel=
kernel_addr_check=true
load_addr_mask=1099511627775
load_offset=0
mem_mode=timing
mem_ranges=0:268435455
memories=system.mem_ctrls
num_work_ids=16
readfile=
symbolfile=
work_begin_ckpt_count=0
work_begin_cpu_id_exit=-1
work_begin_exit_count=0
work_cpus_ckpt_count=0
work_end_ckpt_count=0
work_end_exit_count=0
work_item_id=-1
system_port=system.sys_port_proxy.slave[0]

[system.clk_domain]
type=SrcClockDomain
clock=1
domain_id=-1
eventq_index=0
init_perf_level=0
voltage_domain=system.voltage_domain

[system.cpu]
type=RubyTester
check_flush=true
checks_to_complete=100
clk_domain=system.clk_domain
deadlock_threshold=50000
eventq_index=0
num_cpus=1
system=system
wakeup_frequency=10
cpuDataPort=system.ruby.l1_cntrl0.sequencer.slave[0]
cpuInstPort=system.ruby.l1_cntrl0.sequencer.slave[1]

[system.dvfs_handler]
type=DVFSHandler
domains=
enable=false
eventq_index=0
sys_clk_domain=system.clk_domain
transition_latency=100000

[system.mem_ctrls]
type=DRAMCtrl
IDD0=0.075000
IDD02=0.000000
IDD2N=0.050000
IDD2N2=0.000000
IDD2P0=0.000000
IDD2P02=0.000000
IDD2P1=0.000000
IDD2P12=0.000000
IDD3N=0.057000
IDD3N2=0.000000
IDD3P0=0.000000
IDD3P02=0.000000
IDD3P1=0.000000
IDD3P12=0.000000
IDD4R=0.187000
IDD4R2=0.000000
IDD4W=0.165000
IDD4W2=0.000000
IDD5=0.220000
IDD52=0.000000
IDD6=0.000000
IDD62=0.000000
VDD=1.500000
VDD2=0.000000
activation_limit=4
addr_mapping=RoRaBaChCo
bank_groups_per_rank=0
banks_per_rank=8
burst_length=8
channels=1
clk_domain=system.clk_domain
conf_table_reported=true
device_bus_width=8
device_rowbuffer_size=1024
device_size=536870912
devices_per_rank=8
dll=true
eventq_index=0
in_addr_map=true
max_accesses_per_row=16
mem_sched_policy=frfcfs
min_writes_per_switch=16
null=false
page_policy=open_adaptive
range=0:268435455
ranks_per_channel=2
read_buffer_size=32
static_backend_latency=10
static_frontend_latency=10
tBURST=5
tCCD_L=0
tCK=1
tCL=14
tCS=3
tRAS=35
tRCD=14
tREFI=7800
tRFC=260
tRP=14
tRRD=6
tRRD_L=0
tRTP=8
tRTW=3
tWR=15
tWTR=8
tXAW=30
tXP=0
tXPDLL=0
tXS=0
tXSDLL=0
write_buffer_size=64
write_high_thresh_perc=85
write_low_thresh_perc=50
port=system.ruby.dir_cntrl0.memory

[system.ruby]
type=RubySystem
children=clk_domain dir_cntrl0 l1_cntrl0 memctrl_clk_domain network
all_instructions=false
block_size_bytes=64
clk_domain=system.ruby.clk_domain
eventq_index=0
hot_lines=false
memory_size_bits=48
num_of_sequencers=1
phys_mem=Null
random_seed=1234
randomization=true

[system.ruby.clk_domain]
type=SrcClockDomain
clock=1
domain_id=-1
eventq_index=0
init_perf_level=0
voltage_domain=system.voltage_domain

[system.ruby.dir_cntrl0]
type=Directory_Controller
children=directory probeFilter
buffer_size=0
clk_domain=system.ruby.clk_domain
cluster_id=0
directory=system.ruby.dir_cntrl0.directory
eventq_index=0
from_memory_controller_latency=2
full_bit_dir_enabled=false
number_of_TBEs=256
probeFilter=system.ruby.dir_cntrl0.probeFilter
probe_filter_enabled=false
recycle_latency=10
ruby_system=system.ruby
system=system
to_memory_controller_latency=1
transitions_per_cycle=32
version=0
dmaRequestToDir=system.ruby.network.master[5]
dmaResponseFromDir=system.ruby.network.slave[5]
forwardFromDir=system.ruby.network.slave[3]
memory=system.mem_ctrls.port
requestToDir=system.ruby.network.master[4]
responseFromDir=system.ruby.network.slave[4]
responseToDir=system.ruby.network.master[3]
unblockToDir=system.ruby.network.master[2]

[system.ruby.dir_cntrl0.directory]
type=RubyDirectoryMemory
eventq_index=0
numa_high_bit=5
size=268435456
version=0

[system.ruby.dir_cntrl0.probeFilter]
type=RubyCache
assoc=4
dataAccessLatency=1
dataArrayBanks=1
eventq_index=0
is_icache=false
latency=1
replacement_policy=PSEUDO_LRU
resourceStalls=false
size=1024
start_index_bit=6
tagAccessLatency=1
tagArrayBanks=1

[system.ruby.l1_cntrl0]
type=L1Cache_Controller
children=L1Dcache L1Icache L2cache sequencer
L1Dcache=system.ruby.l1_cntrl0.L1Dcache
L1Icache=system.ruby.l1_cntrl0.L1Icache
L2cache=system.ruby.l1_cntrl0.L2cache
buffer_size=0
cache_response_latency=10
clk_domain=system.ruby.clk_domain
cluster_id=0
eventq_index=0
issue_latency=2
l2_cache_hit_latency=10
no_mig_atomic=true
number_of_TBEs=256
recycle_latency=10
ruby_system=system.ruby
send_evictions=false
sequencer=system.ruby.l1_cntrl0.sequencer
system=system
transitions_per_cycle=32
version=0
forwardToCache=system.ruby.network.master[0]
requestFromCache=system.ruby.network.slave[0]
responseFromCache=system.ruby.network.slave[1]
responseToCache=system.ruby.network.master[1]
unblockFromCache=system.ruby.network.slave[2]

[system.ruby.l1_cntrl0.L1Dcache]
type=RubyCache
assoc=2
dataAccessLatency=1
dataArrayBanks=1
eventq_index=0
is_icache=false
latency=2
replacement_policy=PSEUDO_LRU
resourceStalls=false
size=256
start_index_bit=6
tagAccessLatency=1
tagArrayBanks=1

[system.ruby.l1_cntrl0.L1Icache]
type=RubyCache
assoc=2
dataAccessLatency=1
dataArrayBanks=1
eventq_index=0
is_icache=true
latency=2
replacement_policy=PSEUDO_LRU
resourceStalls=false
size=256
start_index_bit=6
tagAccessLatency=1
tagArrayBanks=1

[system.ruby.l1_cntrl0.L2cache]
type=RubyCache
assoc=2
dataAccessLatency=1
dataArrayBanks=1
eventq_index=0
is_icache=false
latency=10
replacement_policy=PSEUDO_LRU
resourceStalls=false
size=512
start_index_bit=6
tagAccessLatency=1
tagArrayBanks=1

[system.ruby.l1_cntrl0.sequencer]
type=RubySequencer
access_backing_store=false
clk_domain=system.ruby.clk_domain
dcache=system.ruby.l1_cntrl0.L1Dcache
deadlock_threshold=500000
eventq_index=0
icache=system.ruby.l1_cntrl0.L1Icache
max_outstanding_requests=16
ruby_system=system.ruby
support_data_reqs=true
support_inst_reqs=true
system=system
using_network_tester=false
using_ruby_tester=true
version=0
slave=system.cpu.cpuDataPort[0] system.cpu.cpuInstPort[0]

[system.ruby.memctrl_clk_domain]
type=DerivedClockDomain
clk_divider=3
clk_domain=system.ruby.clk_domain
eventq_index=0

[system.ruby.network]
type=SimpleNetwork
children=ext_links0 ext_links1 int_links0 int_links1 routers0 routers1 routers2
adaptive_routing=false
buffer_size=0
clk_domain=system.ruby.clk_domain
control_msg_size=8
endpoint_bandwidth=1000
eventq_index=0
ext_links=system.ruby.network.ext_links0 system.ruby.network.ext_links1
int_links=system.ruby.network.int_links0 system.ruby.network.int_links1
netifs=
number_of_virtual_networks=10
routers=system.ruby.network.routers0 system.ruby.network.routers1 system.ruby.network.routers2
ruby_system=system.ruby
topology=Crossbar
master=system.ruby.l1_cntrl0.forwardToCache system.ruby.l1_cntrl0.responseToCache system.ruby.dir_cntrl0.unblockToDir system.ruby.dir_cntrl0.responseToDir system.ruby.dir_cntrl0.requestToDir system.ruby.dir_cntrl0.dmaRequestToDir
slave=system.ruby.l1_cntrl0.requestFromCache system.ruby.l1_cntrl0.responseFromCache system.ruby.l1_cntrl0.unblockFromCache system.ruby.dir_cntrl0.forwardFromDir system.ruby.dir_cntrl0.responseFromDir system.ruby.dir_cntrl0.dmaResponseFromDir

[system.ruby.network.ext_links0]
type=SimpleExtLink
bandwidth_factor=16
eventq_index=0
ext_node=system.ruby.l1_cntrl0
int_node=system.ruby.network.routers0
latency=1
link_id=0
weight=1

[system.ruby.network.ext_links1]
type=SimpleExtLink
bandwidth_factor=16
eventq_index=0
ext_node=system.ruby.dir_cntrl0
int_node=system.ruby.network.routers1
latency=1
link_id=1
weight=1

[system.ruby.network.int_links0]
type=SimpleIntLink
bandwidth_factor=16
eventq_index=0
latency=1
link_id=2
node_a=system.ruby.network.routers0
node_b=system.ruby.network.routers2
weight=1

[system.ruby.network.int_links1]
type=SimpleIntLink
bandwidth_factor=16
eventq_index=0
latency=1
link_id=3
node_a=system.ruby.network.routers1
node_b=system.ruby.network.routers2
weight=1

[system.ruby.network.routers0]
type=Switch
clk_domain=system.ruby.clk_domain
eventq_index=0
router_id=0
virt_nets=10

[system.ruby.network.routers1]
type=Switch
clk_domain=system.ruby.clk_domain
eventq_index=0
router_id=1
virt_nets=10

[system.ruby.network.routers2]
type=Switch
clk_domain=system.ruby.clk_domain
eventq_index=0
router_id=2
virt_nets=10

[system.sys_port_proxy]
type=RubyPortProxy
access_backing_store=false
clk_domain=system.clk_domain
eventq_index=0
ruby_system=system.ruby
support_data_reqs=true
support_inst_reqs=true
system=system
using_ruby_tester=false
version=0
slave=system.system_port

[system.voltage_domain]
type=VoltageDomain
eventq_index=0
voltage=1.000000

