[root]
type=Root
children=system
eventq_index=0
full_system=true
sim_quantum=0
time_sync_enable=false
time_sync_period=100000000000
time_sync_spin_threshold=100000000

[system]
type=LinuxArmSystem
children=bridge cf0 clk_domain cpu0 cpu1 cpu_clk_domain dvfs_handler intrctrl iobus iocache l2c membus physmem realview terminal toL2Bus vncserver voltage_domain
atags_addr=256
boot_loader=/scratch/nilay/GEM5/system/binaries/boot.arm
boot_osflags=earlyprintk=pl011,0x1c090000 console=ttyAMA0 lpj=19988480 norandmaps rw loglevel=8 mem=128MB root=/dev/sda1
boot_release_addr=65528
cache_line_size=64
clk_domain=system.clk_domain
dtb_filename=
early_kernel_symbols=false
enable_context_switch_stats_dump=false
eventq_index=0
flags_addr=268435504
gic_cpu_addr=520093952
have_generic_timer=false
have_large_asid_64=false
have_lpae=false
have_security=false
have_virtualization=false
highest_el_is_64=false
init_param=0
kernel=/scratch/nilay/GEM5/system/binaries/vmlinux.arm.smp.fb.2.6.38.8
kernel_addr_check=true
load_addr_mask=268435455
load_offset=0
machine_type=RealView_PBX
mem_mode=timing
mem_ranges=0:134217727
memories=system.physmem system.realview.nvmem
multi_proc=true
num_work_ids=16
panic_on_oops=true
panic_on_panic=true
phys_addr_range_64=40
readfile=/scratch/nilay/GEM5/gem5/tests/halt.sh
reset_addr_64=0
symbolfile=
work_begin_ckpt_count=0
work_begin_cpu_id_exit=-1
work_begin_exit_count=0
work_cpus_ckpt_count=0
work_end_ckpt_count=0
work_end_exit_count=0
work_item_id=-1
system_port=system.membus.slave[0]

[system.bridge]
type=Bridge
clk_domain=system.clk_domain
delay=50000
eventq_index=0
ranges=268435456:520093695 1073741824:1610612735
req_size=16
resp_size=16
master=system.iobus.slave[0]
slave=system.membus.master[0]

[system.cf0]
type=IdeDisk
children=image
delay=1000000
driveID=master
eventq_index=0
image=system.cf0.image

[system.cf0.image]
type=CowDiskImage
children=child
child=system.cf0.image.child
eventq_index=0
image_file=
read_only=false
table_size=65536

[system.cf0.image.child]
type=RawDiskImage
eventq_index=0
image_file=/scratch/nilay/GEM5/system/disks/linux-arm-ael.img
read_only=true

[system.clk_domain]
type=SrcClockDomain
clock=1000
domain_id=-1
eventq_index=0
init_perf_level=0
voltage_domain=system.voltage_domain

[system.cpu0]
type=MinorCPU
children=branchPred dcache dstage2_mmu dtb executeFuncUnits icache interrupts isa istage2_mmu itb l2cache toL2Bus tracer
branchPred=system.cpu0.branchPred
checker=Null
clk_domain=system.cpu_clk_domain
cpu_id=0
decodeCycleInput=true
decodeInputBufferSize=3
decodeInputWidth=2
decodeToExecuteForwardDelay=1
do_checkpoint_insts=true
do_quiesce=true
do_statistics_insts=true
dstage2_mmu=system.cpu0.dstage2_mmu
dtb=system.cpu0.dtb
enableIdling=true
eventq_index=0
executeAllowEarlyMemoryIssue=true
executeBranchDelay=1
executeCommitLimit=2
executeCycleInput=true
executeFuncUnits=system.cpu0.executeFuncUnits
executeInputBufferSize=7
executeInputWidth=2
executeIssueLimit=2
executeLSQMaxStoreBufferStoresPerCycle=2
executeLSQRequestsQueueSize=1
executeLSQStoreBufferSize=5
executeLSQTransfersQueueSize=2
executeMaxAccessesInMemory=2
executeMemoryCommitLimit=1
executeMemoryIssueLimit=1
executeMemoryWidth=0
executeSetTraceTimeOnCommit=true
executeSetTraceTimeOnIssue=false
fetch1FetchLimit=1
fetch1LineSnapWidth=0
fetch1LineWidth=0
fetch1ToFetch2BackwardDelay=1
fetch1ToFetch2ForwardDelay=1
fetch2CycleInput=true
fetch2InputBufferSize=2
fetch2ToDecodeForwardDelay=1
function_trace=false
function_trace_start=0
interrupts=system.cpu0.interrupts
isa=system.cpu0.isa
istage2_mmu=system.cpu0.istage2_mmu
itb=system.cpu0.itb
max_insts_all_threads=0
max_insts_any_thread=0
max_loads_all_threads=0
max_loads_any_thread=0
numThreads=1
profile=0
progress_interval=0
simpoint_start_insts=
socket_id=0
switched_out=false
system=system
tracer=system.cpu0.tracer
workload=
dcache_port=system.cpu0.dcache.cpu_side
icache_port=system.cpu0.icache.cpu_side

[system.cpu0.branchPred]
type=BranchPredictor
BTBEntries=4096
BTBTagSize=16
RASSize=16
choiceCtrBits=2
choicePredictorSize=8192
eventq_index=0
globalCtrBits=2
globalPredictorSize=8192
instShiftAmt=2
localCtrBits=2
localHistoryTableSize=2048
localPredictorSize=2048
numThreads=1
predType=tournament

[system.cpu0.dcache]
type=BaseCache
children=tags
addr_ranges=0:18446744073709551615
assoc=2
clk_domain=system.cpu_clk_domain
eventq_index=0
forward_snoops=true
hit_latency=2
is_top_level=true
max_miss_count=0
mshrs=6
prefetch_on_access=false
prefetcher=Null
response_latency=2
sequential_access=false
size=32768
system=system
tags=system.cpu0.dcache.tags
tgts_per_mshr=8
two_queue=false
write_buffers=16
cpu_side=system.cpu0.dcache_port
mem_side=system.cpu0.toL2Bus.slave[1]

[system.cpu0.dcache.tags]
type=LRU
assoc=2
block_size=64
clk_domain=system.cpu_clk_domain
eventq_index=0
hit_latency=2
sequential_access=false
size=32768

[system.cpu0.dstage2_mmu]
type=ArmStage2MMU
children=stage2_tlb
eventq_index=0
stage2_tlb=system.cpu0.dstage2_mmu.stage2_tlb
tlb=system.cpu0.dtb

[system.cpu0.dstage2_mmu.stage2_tlb]
type=ArmTLB
children=walker
eventq_index=0
is_stage2=true
size=32
walker=system.cpu0.dstage2_mmu.stage2_tlb.walker

[system.cpu0.dstage2_mmu.stage2_tlb.walker]
type=ArmTableWalker
clk_domain=system.cpu_clk_domain
eventq_index=0
is_stage2=true
num_squash_per_cycle=2
sys=system
port=system.cpu0.toL2Bus.slave[5]

[system.cpu0.dtb]
type=ArmTLB
children=walker
eventq_index=0
is_stage2=false
size=64
walker=system.cpu0.dtb.walker

[system.cpu0.dtb.walker]
type=ArmTableWalker
clk_domain=system.cpu_clk_domain
eventq_index=0
is_stage2=false
num_squash_per_cycle=2
sys=system
port=system.cpu0.toL2Bus.slave[3]

[system.cpu0.executeFuncUnits]
type=MinorFUPool
children=funcUnits0 funcUnits1 funcUnits2 funcUnits3 funcUnits4 funcUnits5 funcUnits6
eventq_index=0
funcUnits=system.cpu0.executeFuncUnits.funcUnits0 system.cpu0.executeFuncUnits.funcUnits1 system.cpu0.executeFuncUnits.funcUnits2 system.cpu0.executeFuncUnits.funcUnits3 system.cpu0.executeFuncUnits.funcUnits4 system.cpu0.executeFuncUnits.funcUnits5 system.cpu0.executeFuncUnits.funcUnits6

[system.cpu0.executeFuncUnits.funcUnits0]
type=MinorFU
children=opClasses timings
cantForwardFromFUIndices=
eventq_index=0
issueLat=1
opClasses=system.cpu0.executeFuncUnits.funcUnits0.opClasses
opLat=3
timings=system.cpu0.executeFuncUnits.funcUnits0.timings

[system.cpu0.executeFuncUnits.funcUnits0.opClasses]
type=MinorOpClassSet
children=opClasses
eventq_index=0
opClasses=system.cpu0.executeFuncUnits.funcUnits0.opClasses.opClasses

[system.cpu0.executeFuncUnits.funcUnits0.opClasses.opClasses]
type=MinorOpClass
eventq_index=0
opClass=IntAlu

[system.cpu0.executeFuncUnits.funcUnits0.timings]
type=MinorFUTiming
children=opClasses
description=Int
eventq_index=0
extraAssumedLat=0
extraCommitLat=0
extraCommitLatExpr=Null
mask=0
match=0
opClasses=system.cpu0.executeFuncUnits.funcUnits0.timings.opClasses
srcRegsRelativeLats=2
suppress=false

[system.cpu0.executeFuncUnits.funcUnits0.timings.opClasses]
type=MinorOpClassSet
eventq_index=0
opClasses=

[system.cpu0.executeFuncUnits.funcUnits1]
type=MinorFU
children=opClasses timings
cantForwardFromFUIndices=
eventq_index=0
issueLat=1
opClasses=system.cpu0.executeFuncUnits.funcUnits1.opClasses
opLat=3
timings=system.cpu0.executeFuncUnits.funcUnits1.timings

[system.cpu0.executeFuncUnits.funcUnits1.opClasses]
type=MinorOpClassSet
children=opClasses
eventq_index=0
opClasses=system.cpu0.executeFuncUnits.funcUnits1.opClasses.opClasses

[system.cpu0.executeFuncUnits.funcUnits1.opClasses.opClasses]
type=MinorOpClass
eventq_index=0
opClass=IntAlu

[system.cpu0.executeFuncUnits.funcUnits1.timings]
type=MinorFUTiming
children=opClasses
description=Int
eventq_index=0
extraAssumedLat=0
extraCommitLat=0
extraCommitLatExpr=Null
mask=0
match=0
opClasses=system.cpu0.executeFuncUnits.funcUnits1.timings.opClasses
srcRegsRelativeLats=2
suppress=false

[system.cpu0.executeFuncUnits.funcUnits1.timings.opClasses]
type=MinorOpClassSet
eventq_index=0
opClasses=

[system.cpu0.executeFuncUnits.funcUnits2]
type=MinorFU
children=opClasses timings
cantForwardFromFUIndices=
eventq_index=0
issueLat=1
opClasses=system.cpu0.executeFuncUnits.funcUnits2.opClasses
opLat=3
timings=system.cpu0.executeFuncUnits.funcUnits2.timings

[system.cpu0.executeFuncUnits.funcUnits2.opClasses]
type=MinorOpClassSet
children=opClasses
eventq_index=0
opClasses=system.cpu0.executeFuncUnits.funcUnits2.opClasses.opClasses

[system.cpu0.executeFuncUnits.funcUnits2.opClasses.opClasses]
type=MinorOpClass
eventq_index=0
opClass=IntMult

[system.cpu0.executeFuncUnits.funcUnits2.timings]
type=MinorFUTiming
children=opClasses
description=Mul
eventq_index=0
extraAssumedLat=0
extraCommitLat=0
extraCommitLatExpr=Null
mask=0
match=0
opClasses=system.cpu0.executeFuncUnits.funcUnits2.timings.opClasses
srcRegsRelativeLats=0
suppress=false

[system.cpu0.executeFuncUnits.funcUnits2.timings.opClasses]
type=MinorOpClassSet
eventq_index=0
opClasses=

[system.cpu0.executeFuncUnits.funcUnits3]
type=MinorFU
children=opClasses
cantForwardFromFUIndices=
eventq_index=0
issueLat=9
opClasses=system.cpu0.executeFuncUnits.funcUnits3.opClasses
opLat=9
timings=

[system.cpu0.executeFuncUnits.funcUnits3.opClasses]
type=MinorOpClassSet
children=opClasses
eventq_index=0
opClasses=system.cpu0.executeFuncUnits.funcUnits3.opClasses.opClasses

[system.cpu0.executeFuncUnits.funcUnits3.opClasses.opClasses]
type=MinorOpClass
eventq_index=0
opClass=IntDiv

[system.cpu0.executeFuncUnits.funcUnits4]
type=MinorFU
children=opClasses timings
cantForwardFromFUIndices=
eventq_index=0
issueLat=1
opClasses=system.cpu0.executeFuncUnits.funcUnits4.opClasses
opLat=6
timings=system.cpu0.executeFuncUnits.funcUnits4.timings

[system.cpu0.executeFuncUnits.funcUnits4.opClasses]
type=MinorOpClassSet
children=opClasses00 opClasses01 opClasses02 opClasses03 opClasses04 opClasses05 opClasses06 opClasses07 opClasses08 opClasses09 opClasses10 opClasses11 opClasses12 opClasses13 opClasses14 opClasses15 opClasses16 opClasses17 opClasses18 opClasses19 opClasses20 opClasses21 opClasses22 opClasses23 opClasses24 opClasses25
eventq_index=0
opClasses=system.cpu0.executeFuncUnits.funcUnits4.opClasses.opClasses00 system.cpu0.executeFuncUnits.funcUnits4.opClasses.opClasses01 system.cpu0.executeFuncUnits.funcUnits4.opClasses.opClasses02 system.cpu0.executeFuncUnits.funcUnits4.opClasses.opClasses03 system.cpu0.executeFuncUnits.funcUnits4.opClasses.opClasses04 system.cpu0.executeFuncUnits.funcUnits4.opClasses.opClasses05 system.cpu0.executeFuncUnits.funcUnits4.opClasses.opClasses06 system.cpu0.executeFuncUnits.funcUnits4.opClasses.opClasses07 system.cpu0.executeFuncUnits.funcUnits4.opClasses.opClasses08 system.cpu0.executeFuncUnits.funcUnits4.opClasses.opClasses09 system.cpu0.executeFuncUnits.funcUnits4.opClasses.opClasses10 system.cpu0.executeFuncUnits.funcUnits4.opClasses.opClasses11 system.cpu0.executeFuncUnits.funcUnits4.opClasses.opClasses12 system.cpu0.executeFuncUnits.funcUnits4.opClasses.opClasses13 system.cpu0.executeFuncUnits.funcUnits4.opClasses.opClasses14 system.cpu0.executeFuncUnits.funcUnits4.opClasses.opClasses15 system.cpu0.executeFuncUnits.funcUnits4.opClasses.opClasses16 system.cpu0.executeFuncUnits.funcUnits4.opClasses.opClasses17 system.cpu0.executeFuncUnits.funcUnits4.opClasses.opClasses18 system.cpu0.executeFuncUnits.funcUnits4.opClasses.opClasses19 system.cpu0.executeFuncUnits.funcUnits4.opClasses.opClasses20 system.cpu0.executeFuncUnits.funcUnits4.opClasses.opClasses21 system.cpu0.executeFuncUnits.funcUnits4.opClasses.opClasses22 system.cpu0.executeFuncUnits.funcUnits4.opClasses.opClasses23 system.cpu0.executeFuncUnits.funcUnits4.opClasses.opClasses24 system.cpu0.executeFuncUnits.funcUnits4.opClasses.opClasses25

[system.cpu0.executeFuncUnits.funcUnits4.opClasses.opClasses00]
type=MinorOpClass
eventq_index=0
opClass=FloatAdd

[system.cpu0.executeFuncUnits.funcUnits4.opClasses.opClasses01]
type=MinorOpClass
eventq_index=0
opClass=FloatCmp

[system.cpu0.executeFuncUnits.funcUnits4.opClasses.opClasses02]
type=MinorOpClass
eventq_index=0
opClass=FloatCvt

[system.cpu0.executeFuncUnits.funcUnits4.opClasses.opClasses03]
type=MinorOpClass
eventq_index=0
opClass=FloatMult

[system.cpu0.executeFuncUnits.funcUnits4.opClasses.opClasses04]
type=MinorOpClass
eventq_index=0
opClass=FloatDiv

[system.cpu0.executeFuncUnits.funcUnits4.opClasses.opClasses05]
type=MinorOpClass
eventq_index=0
opClass=FloatSqrt

[system.cpu0.executeFuncUnits.funcUnits4.opClasses.opClasses06]
type=MinorOpClass
eventq_index=0
opClass=SimdAdd

[system.cpu0.executeFuncUnits.funcUnits4.opClasses.opClasses07]
type=MinorOpClass
eventq_index=0
opClass=SimdAddAcc

[system.cpu0.executeFuncUnits.funcUnits4.opClasses.opClasses08]
type=MinorOpClass
eventq_index=0
opClass=SimdAlu

[system.cpu0.executeFuncUnits.funcUnits4.opClasses.opClasses09]
type=MinorOpClass
eventq_index=0
opClass=SimdCmp

[system.cpu0.executeFuncUnits.funcUnits4.opClasses.opClasses10]
type=MinorOpClass
eventq_index=0
opClass=SimdCvt

[system.cpu0.executeFuncUnits.funcUnits4.opClasses.opClasses11]
type=MinorOpClass
eventq_index=0
opClass=SimdMisc

[system.cpu0.executeFuncUnits.funcUnits4.opClasses.opClasses12]
type=MinorOpClass
eventq_index=0
opClass=SimdMult

[system.cpu0.executeFuncUnits.funcUnits4.opClasses.opClasses13]
type=MinorOpClass
eventq_index=0
opClass=SimdMultAcc

[system.cpu0.executeFuncUnits.funcUnits4.opClasses.opClasses14]
type=MinorOpClass
eventq_index=0
opClass=SimdShift

[system.cpu0.executeFuncUnits.funcUnits4.opClasses.opClasses15]
type=MinorOpClass
eventq_index=0
opClass=SimdShiftAcc

[system.cpu0.executeFuncUnits.funcUnits4.opClasses.opClasses16]
type=MinorOpClass
eventq_index=0
opClass=SimdSqrt

[system.cpu0.executeFuncUnits.funcUnits4.opClasses.opClasses17]
type=MinorOpClass
eventq_index=0
opClass=SimdFloatAdd

[system.cpu0.executeFuncUnits.funcUnits4.opClasses.opClasses18]
type=MinorOpClass
eventq_index=0
opClass=SimdFloatAlu

[system.cpu0.executeFuncUnits.funcUnits4.opClasses.opClasses19]
type=MinorOpClass
eventq_index=0
opClass=SimdFloatCmp

[system.cpu0.executeFuncUnits.funcUnits4.opClasses.opClasses20]
type=MinorOpClass
eventq_index=0
opClass=SimdFloatCvt

[system.cpu0.executeFuncUnits.funcUnits4.opClasses.opClasses21]
type=MinorOpClass
eventq_index=0
opClass=SimdFloatDiv

[system.cpu0.executeFuncUnits.funcUnits4.opClasses.opClasses22]
type=MinorOpClass
eventq_index=0
opClass=SimdFloatMisc

[system.cpu0.executeFuncUnits.funcUnits4.opClasses.opClasses23]
type=MinorOpClass
eventq_index=0
opClass=SimdFloatMult

[system.cpu0.executeFuncUnits.funcUnits4.opClasses.opClasses24]
type=MinorOpClass
eventq_index=0
opClass=SimdFloatMultAcc

[system.cpu0.executeFuncUnits.funcUnits4.opClasses.opClasses25]
type=MinorOpClass
eventq_index=0
opClass=SimdFloatSqrt

[system.cpu0.executeFuncUnits.funcUnits4.timings]
type=MinorFUTiming
children=opClasses
description=FloatSimd
eventq_index=0
extraAssumedLat=0
extraCommitLat=0
extraCommitLatExpr=Null
mask=0
match=0
opClasses=system.cpu0.executeFuncUnits.funcUnits4.timings.opClasses
srcRegsRelativeLats=2
suppress=false

[system.cpu0.executeFuncUnits.funcUnits4.timings.opClasses]
type=MinorOpClassSet
eventq_index=0
opClasses=

[system.cpu0.executeFuncUnits.funcUnits5]
type=MinorFU
children=opClasses timings
cantForwardFromFUIndices=
eventq_index=0
issueLat=1
opClasses=system.cpu0.executeFuncUnits.funcUnits5.opClasses
opLat=1
timings=system.cpu0.executeFuncUnits.funcUnits5.timings

[system.cpu0.executeFuncUnits.funcUnits5.opClasses]
type=MinorOpClassSet
children=opClasses0 opClasses1
eventq_index=0
opClasses=system.cpu0.executeFuncUnits.funcUnits5.opClasses.opClasses0 system.cpu0.executeFuncUnits.funcUnits5.opClasses.opClasses1

[system.cpu0.executeFuncUnits.funcUnits5.opClasses.opClasses0]
type=MinorOpClass
eventq_index=0
opClass=MemRead

[system.cpu0.executeFuncUnits.funcUnits5.opClasses.opClasses1]
type=MinorOpClass
eventq_index=0
opClass=MemWrite

[system.cpu0.executeFuncUnits.funcUnits5.timings]
type=MinorFUTiming
children=opClasses
description=Mem
eventq_index=0
extraAssumedLat=2
extraCommitLat=0
extraCommitLatExpr=Null
mask=0
match=0
opClasses=system.cpu0.executeFuncUnits.funcUnits5.timings.opClasses
srcRegsRelativeLats=1
suppress=false

[system.cpu0.executeFuncUnits.funcUnits5.timings.opClasses]
type=MinorOpClassSet
eventq_index=0
opClasses=

[system.cpu0.executeFuncUnits.funcUnits6]
type=MinorFU
children=opClasses
cantForwardFromFUIndices=
eventq_index=0
issueLat=1
opClasses=system.cpu0.executeFuncUnits.funcUnits6.opClasses
opLat=1
timings=

[system.cpu0.executeFuncUnits.funcUnits6.opClasses]
type=MinorOpClassSet
children=opClasses0 opClasses1
eventq_index=0
opClasses=system.cpu0.executeFuncUnits.funcUnits6.opClasses.opClasses0 system.cpu0.executeFuncUnits.funcUnits6.opClasses.opClasses1

[system.cpu0.executeFuncUnits.funcUnits6.opClasses.opClasses0]
type=MinorOpClass
eventq_index=0
opClass=IprAccess

[system.cpu0.executeFuncUnits.funcUnits6.opClasses.opClasses1]
type=MinorOpClass
eventq_index=0
opClass=InstPrefetch

[system.cpu0.icache]
type=BaseCache
children=tags
addr_ranges=0:18446744073709551615
assoc=2
clk_domain=system.cpu_clk_domain
eventq_index=0
forward_snoops=true
hit_latency=1
is_top_level=true
max_miss_count=0
mshrs=2
prefetch_on_access=false
prefetcher=Null
response_latency=1
sequential_access=false
size=32768
system=system
tags=system.cpu0.icache.tags
tgts_per_mshr=8
two_queue=false
write_buffers=8
cpu_side=system.cpu0.icache_port
mem_side=system.cpu0.toL2Bus.slave[0]

[system.cpu0.icache.tags]
type=LRU
assoc=2
block_size=64
clk_domain=system.cpu_clk_domain
eventq_index=0
hit_latency=1
sequential_access=false
size=32768

[system.cpu0.interrupts]
type=ArmInterrupts
eventq_index=0

[system.cpu0.isa]
type=ArmISA
eventq_index=0
fpsid=1090793632
id_aa64afr0_el1=0
id_aa64afr1_el1=0
id_aa64dfr0_el1=1052678
id_aa64dfr1_el1=0
id_aa64isar0_el1=0
id_aa64isar1_el1=0
id_aa64mmfr0_el1=15728642
id_aa64mmfr1_el1=0
id_aa64pfr0_el1=17
id_aa64pfr1_el1=0
id_isar0=34607377
id_isar1=34677009
id_isar2=555950401
id_isar3=17899825
id_isar4=268501314
id_isar5=0
id_mmfr0=270536963
id_mmfr1=0
id_mmfr2=19070976
id_mmfr3=34611729
id_pfr0=49
id_pfr1=4113
midr=1091551472
system=system

[system.cpu0.istage2_mmu]
type=ArmStage2MMU
children=stage2_tlb
eventq_index=0
stage2_tlb=system.cpu0.istage2_mmu.stage2_tlb
tlb=system.cpu0.itb

[system.cpu0.istage2_mmu.stage2_tlb]
type=ArmTLB
children=walker
eventq_index=0
is_stage2=true
size=32
walker=system.cpu0.istage2_mmu.stage2_tlb.walker

[system.cpu0.istage2_mmu.stage2_tlb.walker]
type=ArmTableWalker
clk_domain=system.cpu_clk_domain
eventq_index=0
is_stage2=true
num_squash_per_cycle=2
sys=system
port=system.cpu0.toL2Bus.slave[4]

[system.cpu0.itb]
type=ArmTLB
children=walker
eventq_index=0
is_stage2=false
size=64
walker=system.cpu0.itb.walker

[system.cpu0.itb.walker]
type=ArmTableWalker
clk_domain=system.cpu_clk_domain
eventq_index=0
is_stage2=false
num_squash_per_cycle=2
sys=system
port=system.cpu0.toL2Bus.slave[2]

[system.cpu0.l2cache]
type=BaseCache
children=prefetcher tags
addr_ranges=0:18446744073709551615
assoc=16
clk_domain=system.cpu_clk_domain
eventq_index=0
forward_snoops=true
hit_latency=12
is_top_level=false
max_miss_count=0
mshrs=16
prefetch_on_access=true
prefetcher=system.cpu0.l2cache.prefetcher
response_latency=12
sequential_access=false
size=1048576
system=system
tags=system.cpu0.l2cache.tags
tgts_per_mshr=8
two_queue=false
write_buffers=8
cpu_side=system.cpu0.toL2Bus.master[0]
mem_side=system.toL2Bus.slave[0]

[system.cpu0.l2cache.prefetcher]
type=StridePrefetcher
clk_domain=system.cpu_clk_domain
cross_pages=false
data_accesses_only=false
degree=8
eventq_index=0
inst_tagged=true
latency=1
on_miss_only=false
on_prefetch=true
on_read_only=false
serial_squash=false
size=100
sys=system
use_master_id=true

[system.cpu0.l2cache.tags]
type=RandomRepl
assoc=16
block_size=64
clk_domain=system.cpu_clk_domain
eventq_index=0
hit_latency=12
sequential_access=false
size=1048576

[system.cpu0.toL2Bus]
type=CoherentXBar
clk_domain=system.cpu_clk_domain
eventq_index=0
header_cycles=1
snoop_filter=Null
system=system
use_default_range=false
width=32
master=system.cpu0.l2cache.cpu_side
slave=system.cpu0.icache.mem_side system.cpu0.dcache.mem_side system.cpu0.itb.walker.port system.cpu0.dtb.walker.port system.cpu0.istage2_mmu.stage2_tlb.walker.port system.cpu0.dstage2_mmu.stage2_tlb.walker.port

[system.cpu0.tracer]
type=ExeTracer
eventq_index=0

[system.cpu1]
type=MinorCPU
children=branchPred dcache dstage2_mmu dtb executeFuncUnits icache interrupts isa istage2_mmu itb l2cache toL2Bus tracer
branchPred=system.cpu1.branchPred
checker=Null
clk_domain=system.cpu_clk_domain
cpu_id=1
decodeCycleInput=true
decodeInputBufferSize=3
decodeInputWidth=2
decodeToExecuteForwardDelay=1
do_checkpoint_insts=true
do_quiesce=true
do_statistics_insts=true
dstage2_mmu=system.cpu1.dstage2_mmu
dtb=system.cpu1.dtb
enableIdling=true
eventq_index=0
executeAllowEarlyMemoryIssue=true
executeBranchDelay=1
executeCommitLimit=2
executeCycleInput=true
executeFuncUnits=system.cpu1.executeFuncUnits
executeInputBufferSize=7
executeInputWidth=2
executeIssueLimit=2
executeLSQMaxStoreBufferStoresPerCycle=2
executeLSQRequestsQueueSize=1
executeLSQStoreBufferSize=5
executeLSQTransfersQueueSize=2
executeMaxAccessesInMemory=2
executeMemoryCommitLimit=1
executeMemoryIssueLimit=1
executeMemoryWidth=0
executeSetTraceTimeOnCommit=true
executeSetTraceTimeOnIssue=false
fetch1FetchLimit=1
fetch1LineSnapWidth=0
fetch1LineWidth=0
fetch1ToFetch2BackwardDelay=1
fetch1ToFetch2ForwardDelay=1
fetch2CycleInput=true
fetch2InputBufferSize=2
fetch2ToDecodeForwardDelay=1
function_trace=false
function_trace_start=0
interrupts=system.cpu1.interrupts
isa=system.cpu1.isa
istage2_mmu=system.cpu1.istage2_mmu
itb=system.cpu1.itb
max_insts_all_threads=0
max_insts_any_thread=0
max_loads_all_threads=0
max_loads_any_thread=0
numThreads=1
profile=0
progress_interval=0
simpoint_start_insts=
socket_id=0
switched_out=false
system=system
tracer=system.cpu1.tracer
workload=
dcache_port=system.cpu1.dcache.cpu_side
icache_port=system.cpu1.icache.cpu_side

[system.cpu1.branchPred]
type=BranchPredictor
BTBEntries=4096
BTBTagSize=16
RASSize=16
choiceCtrBits=2
choicePredictorSize=8192
eventq_index=0
globalCtrBits=2
globalPredictorSize=8192
instShiftAmt=2
localCtrBits=2
localHistoryTableSize=2048
localPredictorSize=2048
numThreads=1
predType=tournament

[system.cpu1.dcache]
type=BaseCache
children=tags
addr_ranges=0:18446744073709551615
assoc=2
clk_domain=system.cpu_clk_domain
eventq_index=0
forward_snoops=true
hit_latency=2
is_top_level=true
max_miss_count=0
mshrs=6
prefetch_on_access=false
prefetcher=Null
response_latency=2
sequential_access=false
size=32768
system=system
tags=system.cpu1.dcache.tags
tgts_per_mshr=8
two_queue=false
write_buffers=16
cpu_side=system.cpu1.dcache_port
mem_side=system.cpu1.toL2Bus.slave[1]

[system.cpu1.dcache.tags]
type=LRU
assoc=2
block_size=64
clk_domain=system.cpu_clk_domain
eventq_index=0
hit_latency=2
sequential_access=false
size=32768

[system.cpu1.dstage2_mmu]
type=ArmStage2MMU
children=stage2_tlb
eventq_index=0
stage2_tlb=system.cpu1.dstage2_mmu.stage2_tlb
tlb=system.cpu1.dtb

[system.cpu1.dstage2_mmu.stage2_tlb]
type=ArmTLB
children=walker
eventq_index=0
is_stage2=true
size=32
walker=system.cpu1.dstage2_mmu.stage2_tlb.walker

[system.cpu1.dstage2_mmu.stage2_tlb.walker]
type=ArmTableWalker
clk_domain=system.cpu_clk_domain
eventq_index=0
is_stage2=true
num_squash_per_cycle=2
sys=system
port=system.cpu1.toL2Bus.slave[5]

[system.cpu1.dtb]
type=ArmTLB
children=walker
eventq_index=0
is_stage2=false
size=64
walker=system.cpu1.dtb.walker

[system.cpu1.dtb.walker]
type=ArmTableWalker
clk_domain=system.cpu_clk_domain
eventq_index=0
is_stage2=false
num_squash_per_cycle=2
sys=system
port=system.cpu1.toL2Bus.slave[3]

[system.cpu1.executeFuncUnits]
type=MinorFUPool
children=funcUnits0 funcUnits1 funcUnits2 funcUnits3 funcUnits4 funcUnits5 funcUnits6
eventq_index=0
funcUnits=system.cpu1.executeFuncUnits.funcUnits0 system.cpu1.executeFuncUnits.funcUnits1 system.cpu1.executeFuncUnits.funcUnits2 system.cpu1.executeFuncUnits.funcUnits3 system.cpu1.executeFuncUnits.funcUnits4 system.cpu1.executeFuncUnits.funcUnits5 system.cpu1.executeFuncUnits.funcUnits6

[system.cpu1.executeFuncUnits.funcUnits0]
type=MinorFU
children=opClasses timings
cantForwardFromFUIndices=
eventq_index=0
issueLat=1
opClasses=system.cpu1.executeFuncUnits.funcUnits0.opClasses
opLat=3
timings=system.cpu1.executeFuncUnits.funcUnits0.timings

[system.cpu1.executeFuncUnits.funcUnits0.opClasses]
type=MinorOpClassSet
children=opClasses
eventq_index=0
opClasses=system.cpu1.executeFuncUnits.funcUnits0.opClasses.opClasses

[system.cpu1.executeFuncUnits.funcUnits0.opClasses.opClasses]
type=MinorOpClass
eventq_index=0
opClass=IntAlu

[system.cpu1.executeFuncUnits.funcUnits0.timings]
type=MinorFUTiming
children=opClasses
description=Int
eventq_index=0
extraAssumedLat=0
extraCommitLat=0
extraCommitLatExpr=Null
mask=0
match=0
opClasses=system.cpu1.executeFuncUnits.funcUnits0.timings.opClasses
srcRegsRelativeLats=2
suppress=false

[system.cpu1.executeFuncUnits.funcUnits0.timings.opClasses]
type=MinorOpClassSet
eventq_index=0
opClasses=

[system.cpu1.executeFuncUnits.funcUnits1]
type=MinorFU
children=opClasses timings
cantForwardFromFUIndices=
eventq_index=0
issueLat=1
opClasses=system.cpu1.executeFuncUnits.funcUnits1.opClasses
opLat=3
timings=system.cpu1.executeFuncUnits.funcUnits1.timings

[system.cpu1.executeFuncUnits.funcUnits1.opClasses]
type=MinorOpClassSet
children=opClasses
eventq_index=0
opClasses=system.cpu1.executeFuncUnits.funcUnits1.opClasses.opClasses

[system.cpu1.executeFuncUnits.funcUnits1.opClasses.opClasses]
type=MinorOpClass
eventq_index=0
opClass=IntAlu

[system.cpu1.executeFuncUnits.funcUnits1.timings]
type=MinorFUTiming
children=opClasses
description=Int
eventq_index=0
extraAssumedLat=0
extraCommitLat=0
extraCommitLatExpr=Null
mask=0
match=0
opClasses=system.cpu1.executeFuncUnits.funcUnits1.timings.opClasses
srcRegsRelativeLats=2
suppress=false

[system.cpu1.executeFuncUnits.funcUnits1.timings.opClasses]
type=MinorOpClassSet
eventq_index=0
opClasses=

[system.cpu1.executeFuncUnits.funcUnits2]
type=MinorFU
children=opClasses timings
cantForwardFromFUIndices=
eventq_index=0
issueLat=1
opClasses=system.cpu1.executeFuncUnits.funcUnits2.opClasses
opLat=3
timings=system.cpu1.executeFuncUnits.funcUnits2.timings

[system.cpu1.executeFuncUnits.funcUnits2.opClasses]
type=MinorOpClassSet
children=opClasses
eventq_index=0
opClasses=system.cpu1.executeFuncUnits.funcUnits2.opClasses.opClasses

[system.cpu1.executeFuncUnits.funcUnits2.opClasses.opClasses]
type=MinorOpClass
eventq_index=0
opClass=IntMult

[system.cpu1.executeFuncUnits.funcUnits2.timings]
type=MinorFUTiming
children=opClasses
description=Mul
eventq_index=0
extraAssumedLat=0
extraCommitLat=0
extraCommitLatExpr=Null
mask=0
match=0
opClasses=system.cpu1.executeFuncUnits.funcUnits2.timings.opClasses
srcRegsRelativeLats=0
suppress=false

[system.cpu1.executeFuncUnits.funcUnits2.timings.opClasses]
type=MinorOpClassSet
eventq_index=0
opClasses=

[system.cpu1.executeFuncUnits.funcUnits3]
type=MinorFU
children=opClasses
cantForwardFromFUIndices=
eventq_index=0
issueLat=9
opClasses=system.cpu1.executeFuncUnits.funcUnits3.opClasses
opLat=9
timings=

[system.cpu1.executeFuncUnits.funcUnits3.opClasses]
type=MinorOpClassSet
children=opClasses
eventq_index=0
opClasses=system.cpu1.executeFuncUnits.funcUnits3.opClasses.opClasses

[system.cpu1.executeFuncUnits.funcUnits3.opClasses.opClasses]
type=MinorOpClass
eventq_index=0
opClass=IntDiv

[system.cpu1.executeFuncUnits.funcUnits4]
type=MinorFU
children=opClasses timings
cantForwardFromFUIndices=
eventq_index=0
issueLat=1
opClasses=system.cpu1.executeFuncUnits.funcUnits4.opClasses
opLat=6
timings=system.cpu1.executeFuncUnits.funcUnits4.timings

[system.cpu1.executeFuncUnits.funcUnits4.opClasses]
type=MinorOpClassSet
children=opClasses00 opClasses01 opClasses02 opClasses03 opClasses04 opClasses05 opClasses06 opClasses07 opClasses08 opClasses09 opClasses10 opClasses11 opClasses12 opClasses13 opClasses14 opClasses15 opClasses16 opClasses17 opClasses18 opClasses19 opClasses20 opClasses21 opClasses22 opClasses23 opClasses24 opClasses25
eventq_index=0
opClasses=system.cpu1.executeFuncUnits.funcUnits4.opClasses.opClasses00 system.cpu1.executeFuncUnits.funcUnits4.opClasses.opClasses01 system.cpu1.executeFuncUnits.funcUnits4.opClasses.opClasses02 system.cpu1.executeFuncUnits.funcUnits4.opClasses.opClasses03 system.cpu1.executeFuncUnits.funcUnits4.opClasses.opClasses04 system.cpu1.executeFuncUnits.funcUnits4.opClasses.opClasses05 system.cpu1.executeFuncUnits.funcUnits4.opClasses.opClasses06 system.cpu1.executeFuncUnits.funcUnits4.opClasses.opClasses07 system.cpu1.executeFuncUnits.funcUnits4.opClasses.opClasses08 system.cpu1.executeFuncUnits.funcUnits4.opClasses.opClasses09 system.cpu1.executeFuncUnits.funcUnits4.opClasses.opClasses10 system.cpu1.executeFuncUnits.funcUnits4.opClasses.opClasses11 system.cpu1.executeFuncUnits.funcUnits4.opClasses.opClasses12 system.cpu1.executeFuncUnits.funcUnits4.opClasses.opClasses13 system.cpu1.executeFuncUnits.funcUnits4.opClasses.opClasses14 system.cpu1.executeFuncUnits.funcUnits4.opClasses.opClasses15 system.cpu1.executeFuncUnits.funcUnits4.opClasses.opClasses16 system.cpu1.executeFuncUnits.funcUnits4.opClasses.opClasses17 system.cpu1.executeFuncUnits.funcUnits4.opClasses.opClasses18 system.cpu1.executeFuncUnits.funcUnits4.opClasses.opClasses19 system.cpu1.executeFuncUnits.funcUnits4.opClasses.opClasses20 system.cpu1.executeFuncUnits.funcUnits4.opClasses.opClasses21 system.cpu1.executeFuncUnits.funcUnits4.opClasses.opClasses22 system.cpu1.executeFuncUnits.funcUnits4.opClasses.opClasses23 system.cpu1.executeFuncUnits.funcUnits4.opClasses.opClasses24 system.cpu1.executeFuncUnits.funcUnits4.opClasses.opClasses25

[system.cpu1.executeFuncUnits.funcUnits4.opClasses.opClasses00]
type=MinorOpClass