[root]
type=Root
children=system
eventq_index=0
full_system=true
sim_quantum=0
time_sync_enable=false
time_sync_period=100000000000
time_sync_spin_threshold=100000000

[system]
type=LinuxAlphaSystem
children=bridge clk_domain cpu00 cpu01 cpu02 cpu03 cpu04 cpu05 cpu06 cpu07 cpu08 cpu09 cpu10 cpu11 cpu12 cpu13 cpu14 cpu15 cpu_clk_domain cpu_voltage_domain disk0 disk2 dvfs_handler intrctrl iobus iocache l2 mem_ctrls membus simple_disk switch_cpus00 switch_cpus01 switch_cpus02 switch_cpus03 switch_cpus04 switch_cpus05 switch_cpus06 switch_cpus07 switch_cpus08 switch_cpus09 switch_cpus10 switch_cpus11 switch_cpus12 switch_cpus13 switch_cpus14 switch_cpus15 terminal tol2bus tsunami voltage_domain
boot_cpu_frequency=500
boot_osflags=root=/dev/hda1 console=ttyS0
cache_line_size=64
clk_domain=system.clk_domain
console=/home/cliff/Tools/GEM5/system/binaries/console
eventq_index=0
init_param=0
kernel=/home/cliff/Tools/GEM5/system/binaries/vmlinux_2.6.27-gcc_4.3.4
kernel_addr_check=true
load_addr_mask=1099511627775
load_offset=0
mem_mode=atomic
mem_ranges=0:536870911
memories=system.mem_ctrls
mmap_using_noreserve=false
multi_thread=false
num_work_ids=16
numa=false
pal=/home/cliff/Tools/GEM5/system/binaries/tsb_osfpal
readfile=ext/parsec/2.1/run_scripts/facesim_16c_simsmall.rcS
symbolfile=
system_rev=1024
system_type=34
work_begin_ckpt_count=0
work_begin_cpu_id_exit=-1
work_begin_exit_count=0
work_cpus_ckpt_count=0
work_end_ckpt_count=0
work_end_exit_count=0
work_item_id=-1
system_port=system.membus.slave[0]

[system.bridge]
type=Bridge
clk_domain=system.clk_domain
delay=50000
eventq_index=0
numa=false
ranges=8796093022208:18446744073709551615
req_size=16
resp_size=16
master=system.iobus.slave[0]
slave=system.membus.master[0]

[system.clk_domain]
type=SrcClockDomain
clock=1000
domain_id=-1
eventq_index=0
init_perf_level=0
voltage_domain=system.voltage_domain

[system.cpu00]
type=AtomicSimpleCPU
children=dcache dtb icache interrupts isa itb tracer
branchPred=Null
checker=Null
clk_domain=system.cpu_clk_domain
cpu_id=0
do_checkpoint_insts=true
do_quiesce=true
do_statistics_insts=true
dtb=system.cpu00.dtb
eventq_index=0
fastmem=false
function_trace=false
function_trace_start=0
interrupts=system.cpu00.interrupts
isa=system.cpu00.isa
itb=system.cpu00.itb
max_insts_all_threads=0
max_insts_any_thread=0
max_loads_all_threads=0
max_loads_any_thread=0
numThreads=1
numa=false
profile=0
progress_interval=0
simpoint_start_insts=
simulate_data_stalls=false
simulate_inst_stalls=false
socket_id=0
switched_out=false
system=system
tracer=system.cpu00.tracer
width=1
workload=
dcache_port=system.cpu00.dcache.cpu_side
icache_port=system.cpu00.icache.cpu_side

[system.cpu00.dcache]
type=Cache
children=tags
addr_ranges=0:18446744073709551615
assoc=2
clk_domain=system.cpu_clk_domain
clusivity=mostly_incl
demand_mshr_reserve=1
eventq_index=0
forward_snoops=true
hit_latency=2
is_read_only=false
max_miss_count=0
mshrs=4
numa=false
prefetch_on_access=false
prefetcher=Null
response_latency=2
sequential_access=false
size=32768
system=system
tags=system.cpu00.dcache.tags
tgts_per_mshr=20
write_buffers=8
writeback_clean=false
cpu_side=system.cpu00.dcache_port
mem_side=system.tol2bus.slave[1]

[system.cpu00.dcache.tags]
type=LRU
assoc=2
block_size=64
clk_domain=system.cpu_clk_domain
eventq_index=0
hit_latency=2
sequential_access=false
size=32768

[system.cpu00.dtb]
type=AlphaTLB
eventq_index=0
size=64

[system.cpu00.icache]
type=Cache
children=tags
addr_ranges=0:18446744073709551615
assoc=2
clk_domain=system.cpu_clk_domain
clusivity=mostly_incl
demand_mshr_reserve=1
eventq_index=0
forward_snoops=true
hit_latency=2
is_read_only=true
max_miss_count=0
mshrs=4
numa=false
prefetch_on_access=false
prefetcher=Null
response_latency=2
sequential_access=false
size=32768
system=system
tags=system.cpu00.icache.tags
tgts_per_mshr=20
write_buffers=8
writeback_clean=true
cpu_side=system.cpu00.icache_port
mem_side=system.tol2bus.slave[0]

[system.cpu00.icache.tags]
type=LRU
assoc=2
block_size=64
clk_domain=system.cpu_clk_domain
eventq_index=0
hit_latency=2
sequential_access=false
size=32768

[system.cpu00.interrupts]
type=AlphaInterrupts
eventq_index=0

[system.cpu00.isa]
type=AlphaISA
eventq_index=0
system=system

[system.cpu00.itb]
type=AlphaTLB
eventq_index=0
size=48

[system.cpu00.tracer]
type=ExeTracer
eventq_index=0

[system.cpu01]
type=AtomicSimpleCPU
children=dcache dtb icache interrupts isa itb tracer
branchPred=Null
checker=Null
clk_domain=system.cpu_clk_domain
cpu_id=1
do_checkpoint_insts=true
do_quiesce=true
do_statistics_insts=true
dtb=system.cpu01.dtb
eventq_index=0
fastmem=false
function_trace=false
function_trace_start=0
interrupts=system.cpu01.interrupts
isa=system.cpu01.isa
itb=system.cpu01.itb
max_insts_all_threads=0
max_insts_any_thread=0
max_loads_all_threads=0
max_loads_any_thread=0
numThreads=1
numa=false
profile=0
progress_interval=0
simpoint_start_insts=
simulate_data_stalls=false
simulate_inst_stalls=false
socket_id=0
switched_out=false
system=system
tracer=system.cpu01.tracer
width=1
workload=
dcache_port=system.cpu01.dcache.cpu_side
icache_port=system.cpu01.icache.cpu_side

[system.cpu01.dcache]
type=Cache
children=tags
addr_ranges=0:18446744073709551615
assoc=2
clk_domain=system.cpu_clk_domain
clusivity=mostly_incl
demand_mshr_reserve=1
eventq_index=0
forward_snoops=true
hit_latency=2
is_read_only=false
max_miss_count=0
mshrs=4
numa=false
prefetch_on_access=false
prefetcher=Null
response_latency=2
sequential_access=false
size=32768
system=system
tags=system.cpu01.dcache.tags
tgts_per_mshr=20
write_buffers=8
writeback_clean=false
cpu_side=system.cpu01.dcache_port
mem_side=system.tol2bus.slave[3]

[system.cpu01.dcache.tags]
type=LRU
assoc=2
block_size=64
clk_domain=system.cpu_clk_domain
eventq_index=0
hit_latency=2
sequential_access=false
size=32768

[system.cpu01.dtb]
type=AlphaTLB
eventq_index=0
size=64

[system.cpu01.icache]
type=Cache
children=tags
addr_ranges=0:18446744073709551615
assoc=2
clk_domain=system.cpu_clk_domain
clusivity=mostly_incl
demand_mshr_reserve=1
eventq_index=0
forward_snoops=true
hit_latency=2
is_read_only=true
max_miss_count=0
mshrs=4
numa=false
prefetch_on_access=false
prefetcher=Null
response_latency=2
sequential_access=false
size=32768
system=system
tags=system.cpu01.icache.tags
tgts_per_mshr=20
write_buffers=8
writeback_clean=true
cpu_side=system.cpu01.icache_port
mem_side=system.tol2bus.slave[2]

[system.cpu01.icache.tags]
type=LRU
assoc=2
block_size=64
clk_domain=system.cpu_clk_domain
eventq_index=0
hit_latency=2
sequential_access=false
size=32768

[system.cpu01.interrupts]
type=AlphaInterrupts
eventq_index=0

[system.cpu01.isa]
type=AlphaISA
eventq_index=0
system=system

[system.cpu01.itb]
type=AlphaTLB
eventq_index=0
size=48

[system.cpu01.tracer]
type=ExeTracer
eventq_index=0

[system.cpu02]
type=AtomicSimpleCPU
children=dcache dtb icache interrupts isa itb tracer
branchPred=Null
checker=Null
clk_domain=system.cpu_clk_domain
cpu_id=2
do_checkpoint_insts=true
do_quiesce=true
do_statistics_insts=true
dtb=system.cpu02.dtb
eventq_index=0
fastmem=false
function_trace=false
function_trace_start=0
interrupts=system.cpu02.interrupts
isa=system.cpu02.isa
itb=system.cpu02.itb
max_insts_all_threads=0
max_insts_any_thread=0
max_loads_all_threads=0
max_loads_any_thread=0
numThreads=1
numa=false
profile=0
progress_interval=0
simpoint_start_insts=
simulate_data_stalls=false
simulate_inst_stalls=false
socket_id=0
switched_out=false
system=system
tracer=system.cpu02.tracer
width=1
workload=
dcache_port=system.cpu02.dcache.cpu_side
icache_port=system.cpu02.icache.cpu_side

[system.cpu02.dcache]
type=Cache
children=tags
addr_ranges=0:18446744073709551615
assoc=2
clk_domain=system.cpu_clk_domain
clusivity=mostly_incl
demand_mshr_reserve=1
eventq_index=0
forward_snoops=true
hit_latency=2
is_read_only=false
max_miss_count=0
mshrs=4
numa=false
prefetch_on_access=false
prefetcher=Null
response_latency=2
sequential_access=false
size=32768
system=system
tags=system.cpu02.dcache.tags
tgts_per_mshr=20
write_buffers=8
writeback_clean=false
cpu_side=system.cpu02.dcache_port
mem_side=system.tol2bus.slave[5]

[system.cpu02.dcache.tags]
type=LRU
assoc=2
block_size=64
clk_domain=system.cpu_clk_domain
eventq_index=0
hit_latency=2
sequential_access=false
size=32768

[system.cpu02.dtb]
type=AlphaTLB
eventq_index=0
size=64

[system.cpu02.icache]
type=Cache
children=tags
addr_ranges=0:18446744073709551615
assoc=2
clk_domain=system.cpu_clk_domain
clusivity=mostly_incl
demand_mshr_reserve=1
eventq_index=0
forward_snoops=true
hit_latency=2
is_read_only=true
max_miss_count=0
mshrs=4
numa=false
prefetch_on_access=false
prefetcher=Null
response_latency=2
sequential_access=false
size=32768
system=system
tags=system.cpu02.icache.tags
tgts_per_mshr=20
write_buffers=8
writeback_clean=true
cpu_side=system.cpu02.icache_port
mem_side=system.tol2bus.slave[4]

[system.cpu02.icache.tags]
type=LRU
assoc=2
block_size=64
clk_domain=system.cpu_clk_domain
eventq_index=0
hit_latency=2
sequential_access=false
size=32768

[system.cpu02.interrupts]
type=AlphaInterrupts
eventq_index=0

[system.cpu02.isa]
type=AlphaISA
eventq_index=0
system=system

[system.cpu02.itb]
type=AlphaTLB
eventq_index=0
size=48

[system.cpu02.tracer]
type=ExeTracer
eventq_index=0

[system.cpu03]
type=AtomicSimpleCPU
children=dcache dtb icache interrupts isa itb tracer
branchPred=Null
checker=Null
clk_domain=system.cpu_clk_domain
cpu_id=3
do_checkpoint_insts=true
do_quiesce=true
do_statistics_insts=true
dtb=system.cpu03.dtb
eventq_index=0
fastmem=false
function_trace=false
function_trace_start=0
interrupts=system.cpu03.interrupts
isa=system.cpu03.isa
itb=system.cpu03.itb
max_insts_all_threads=0
max_insts_any_thread=0
max_loads_all_threads=0
max_loads_any_thread=0
numThreads=1
numa=false
profile=0
progress_interval=0
simpoint_start_insts=
simulate_data_stalls=false
simulate_inst_stalls=false
socket_id=0
switched_out=false
system=system
tracer=system.cpu03.tracer
width=1
workload=
dcache_port=system.cpu03.dcache.cpu_side
icache_port=system.cpu03.icache.cpu_side

[system.cpu03.dcache]
type=Cache
children=tags
addr_ranges=0:18446744073709551615
assoc=2
clk_domain=system.cpu_clk_domain
clusivity=mostly_incl
demand_mshr_reserve=1
eventq_index=0
forward_snoops=true
hit_latency=2
is_read_only=false
max_miss_count=0
mshrs=4
numa=false
prefetch_on_access=false
prefetcher=Null
response_latency=2
sequential_access=false
size=32768
system=system
tags=system.cpu03.dcache.tags
tgts_per_mshr=20
write_buffers=8
writeback_clean=false
cpu_side=system.cpu03.dcache_port
mem_side=system.tol2bus.slave[7]

[system.cpu03.dcache.tags]
type=LRU
assoc=2
block_size=64
clk_domain=system.cpu_clk_domain
eventq_index=0
hit_latency=2
sequential_access=false
size=32768

[system.cpu03.dtb]
type=AlphaTLB
eventq_index=0
size=64

[system.cpu03.icache]
type=Cache
children=tags
addr_ranges=0:18446744073709551615
assoc=2
clk_domain=system.cpu_clk_domain
clusivity=mostly_incl
demand_mshr_reserve=1
eventq_index=0
forward_snoops=true
hit_latency=2
is_read_only=true
max_miss_count=0
mshrs=4
numa=false
prefetch_on_access=false
prefetcher=Null
response_latency=2
sequential_access=false
size=32768
system=system
tags=system.cpu03.icache.tags
tgts_per_mshr=20
write_buffers=8
writeback_clean=true
cpu_side=system.cpu03.icache_port
mem_side=system.tol2bus.slave[6]

[system.cpu03.icache.tags]
type=LRU
assoc=2
block_size=64
clk_domain=system.cpu_clk_domain
eventq_index=0
hit_latency=2
sequential_access=false
size=32768

[system.cpu03.interrupts]
type=AlphaInterrupts
eventq_index=0

[system.cpu03.isa]
type=AlphaISA
eventq_index=0
system=system

[system.cpu03.itb]
type=AlphaTLB
eventq_index=0
size=48

[system.cpu03.tracer]
type=ExeTracer
eventq_index=0

[system.cpu04]
type=AtomicSimpleCPU
children=dcache dtb icache interrupts isa itb tracer
branchPred=Null
checker=Null
clk_domain=system.cpu_clk_domain
cpu_id=4
do_checkpoint_insts=true
do_quiesce=true
do_statistics_insts=true
dtb=system.cpu04.dtb
eventq_index=0
fastmem=false
function_trace=false
function_trace_start=0
interrupts=system.cpu04.interrupts
isa=system.cpu04.isa
itb=system.cpu04.itb
max_insts_all_threads=0
max_insts_any_thread=0
max_loads_all_threads=0
max_loads_any_thread=0
numThreads=1
numa=false
profile=0
progress_interval=0
simpoint_start_insts=
simulate_data_stalls=false
simulate_inst_stalls=false
socket_id=0
switched_out=false
system=system
tracer=system.cpu04.tracer
width=1
workload=
dcache_port=system.cpu04.dcache.cpu_side
icache_port=system.cpu04.icache.cpu_side

[system.cpu04.dcache]
type=Cache
children=tags
addr_ranges=0:18446744073709551615
assoc=2
clk_domain=system.cpu_clk_domain
clusivity=mostly_incl
demand_mshr_reserve=1
eventq_index=0
forward_snoops=true
hit_latency=2
is_read_only=false
max_miss_count=0
mshrs=4
numa=false
prefetch_on_access=false
prefetcher=Null
response_latency=2
sequential_access=false
size=32768
system=system
tags=system.cpu04.dcache.tags
tgts_per_mshr=20
write_buffers=8
writeback_clean=false
cpu_side=system.cpu04.dcache_port
mem_side=system.tol2bus.slave[9]

[system.cpu04.dcache.tags]
type=LRU
assoc=2
block_size=64
clk_domain=system.cpu_clk_domain
eventq_index=0
hit_latency=2
sequential_access=false
size=32768

[system.cpu04.dtb]
type=AlphaTLB
eventq_index=0
size=64

[system.cpu04.icache]
type=Cache
children=tags
addr_ranges=0:18446744073709551615
assoc=2
clk_domain=system.cpu_clk_domain
clusivity=mostly_incl
demand_mshr_reserve=1
eventq_index=0
forward_snoops=true
hit_latency=2
is_read_only=true
max_miss_count=0
mshrs=4
numa=false
prefetch_on_access=false
prefetcher=Null
response_latency=2
sequential_access=false
size=32768
system=system
tags=system.cpu04.icache.tags
tgts_per_mshr=20
write_buffers=8
writeback_clean=true
cpu_side=system.cpu04.icache_port
mem_side=system.tol2bus.slave[8]

[system.cpu04.icache.tags]
type=LRU
assoc=2
block_size=64
clk_domain=system.cpu_clk_domain
eventq_index=0
hit_latency=2
sequential_access=false
size=32768

[system.cpu04.interrupts]
type=AlphaInterrupts
eventq_index=0

[system.cpu04.isa]
type=AlphaISA
eventq_index=0
system=system

[system.cpu04.itb]
type=AlphaTLB
eventq_index=0
size=48

[system.cpu04.tracer]
type=ExeTracer
eventq_index=0

[system.cpu05]
type=AtomicSimpleCPU
children=dcache dtb icache interrupts isa itb tracer
branchPred=Null
checker=Null
clk_domain=system.cpu_clk_domain
cpu_id=5
do_checkpoint_insts=true
do_quiesce=true
do_statistics_insts=true
dtb=system.cpu05.dtb
eventq_index=0
fastmem=false
function_trace=false
function_trace_start=0
interrupts=system.cpu05.interrupts
isa=system.cpu05.isa
itb=system.cpu05.itb
max_insts_all_threads=0
max_insts_any_thread=0
max_loads_all_threads=0
max_loads_any_thread=0
numThreads=1
numa=false
profile=0
progress_interval=0
simpoint_start_insts=
simulate_data_stalls=false
simulate_inst_stalls=false
socket_id=0
switched_out=false
system=system
tracer=system.cpu05.tracer
width=1
workload=
dcache_port=system.cpu05.dcache.cpu_side
icache_port=system.cpu05.icache.cpu_side

[system.cpu05.dcache]
type=Cache
children=tags
addr_ranges=0:18446744073709551615
assoc=2
clk_domain=system.cpu_clk_domain
clusivity=mostly_incl
demand_mshr_reserve=1
eventq_index=0
forward_snoops=true
hit_latency=2
is_read_only=false
max_miss_count=0
mshrs=4
numa=false
prefetch_on_access=false
prefetcher=Null
response_latency=2
sequential_access=false
size=32768
system=system
tags=system.cpu05.dcache.tags
tgts_per_mshr=20
write_buffers=8
writeback_clean=false
cpu_side=system.cpu05.dcache_port
mem_side=system.tol2bus.slave[11]

[system.cpu05.dcache.tags]
type=LRU
assoc=2
block_size=64
clk_domain=system.cpu_clk_domain
eventq_index=0
hit_latency=2
sequential_access=false
size=32768

[system.cpu05.dtb]
type=AlphaTLB
eventq_index=0
size=64

[system.cpu05.icache]
type=Cache
children=tags
addr_ranges=0:18446744073709551615
assoc=2
clk_domain=system.cpu_clk_domain
clusivity=mostly_incl
demand_mshr_reserve=1
eventq_index=0
forward_snoops=true
hit_latency=2
is_read_only=true
max_miss_count=0
mshrs=4
numa=false
prefetch_on_access=false
prefetcher=Null
response_latency=2
sequential_access=false
size=32768
system=system
tags=system.cpu05.icache.tags
tgts_per_mshr=20
write_buffers=8
writeback_clean=true
cpu_side=system.cpu05.icache_port
mem_side=system.tol2bus.slave[10]

[system.cpu05.icache.tags]
type=LRU
assoc=2
block_size=64
clk_domain=system.cpu_clk_domain
eventq_index=0
hit_latency=2
sequential_access=false
size=32768

[system.cpu05.interrupts]
type=AlphaInterrupts
eventq_index=0

[system.cpu05.isa]
type=AlphaISA
eventq_index=0
system=system

[system.cpu05.itb]
type=AlphaTLB
eventq_index=0
size=48

[system.cpu05.tracer]
type=ExeTracer
eventq_index=0

[system.cpu06]
type=AtomicSimpleCPU
children=dcache dtb icache interrupts isa itb tracer
branchPred=Null
checker=Null
clk_domain=system.cpu_clk_domain
cpu_id=6
do_checkpoint_insts=true
do_quiesce=true
do_statistics_insts=true
dtb=system.cpu06.dtb
eventq_index=0
fastmem=false
function_trace=false
function_trace_start=0
interrupts=system.cpu06.interrupts
isa=system.cpu06.isa
itb=system.cpu06.itb
max_insts_all_threads=0
max_insts_any_thread=0
max_loads_all_threads=0
max_loads_any_thread=0
numThreads=1
numa=false
profile=0
progress_interval=0
simpoint_start_insts=
simulate_data_stalls=false
simulate_inst_stalls=false
socket_id=0
switched_out=false
system=system
tracer=system.cpu06.tracer
width=1
workload=
dcache_port=system.cpu06.dcache.cpu_side
icache_port=system.cpu06.icache.cpu_side

[system.cpu06.dcache]
type=Cache
children=tags
addr_ranges=0:18446744073709551615
assoc=2
clk_domain=system.cpu_clk_domain
clusivity=mostly_incl
demand_mshr_reserve=1
eventq_index=0
forward_snoops=true
hit_latency=2
is_read_only=false
max_miss_count=0
mshrs=4
numa=false
prefetch_on_access=false
prefetcher=Null
response_latency=2
sequential_access=false
size=32768
system=system
tags=system.cpu06.dcache.tags
tgts_per_mshr=20
write_buffers=8
writeback_clean=false
cpu_side=system.cpu06.dcache_port
mem_side=system.tol2bus.slave[13]

[system.cpu06.dcache.tags]
type=LRU
assoc=2
block_size=64
clk_domain=system.cpu_clk_domain
eventq_index=0
hit_latency=2
sequential_access=false
size=32768

[system.cpu06.dtb]
type=AlphaTLB
eventq_index=0
size=64

[system.cpu06.icache]
type=Cache
children=tags
addr_ranges=0:18446744073709551615
assoc=2
clk_domain=system.cpu_clk_domain
clusivity=mostly_incl
demand_mshr_reserve=1
eventq_index=0
forward_snoops=true
hit_latency=2
is_read_only=true
max_miss_count=0
mshrs=4
numa=false
prefetch_on_access=false
prefetcher=Null
response_latency=2
sequential_access=false
size=32768
system=system
tags=system.cpu06.icache.tags
tgts_per_mshr=20
write_buffers=8
writeback_clean=true
cpu_side=system.cpu06.icache_port
mem_side=system.tol2bus.slave[12]

[system.cpu06.icache.tags]
type=LRU
assoc=2
block_size=64
clk_domain=system.cpu_clk_domain
eventq_index=0
hit_latency=2
sequential_access=false
size=32768

[system.cpu06.interrupts]
type=AlphaInterrupts
eventq_index=0

[system.cpu06.isa]
type=AlphaISA
eventq_index=0
system=system

[system.cpu06.itb]
type=AlphaTLB
eventq_index=0
size=48

[system.cpu06.tracer]
type=ExeTracer
eventq_index=0

[system.cpu07]
type=AtomicSimpleCPU
children=dcache dtb icache interrupts isa itb tracer
branchPred=Null
checker=Null
clk_domain=system.cpu_clk_domain
cpu_id=7
do_checkpoint_insts=true
do_quiesce=true
do_statistics_insts=true
dtb=system.cpu07.dtb
eventq_index=0
fastmem=false
function_trace=false
function_trace_start=0
interrupts=system.cpu07.interrupts
isa=system.cpu07.isa
itb=system.cpu07.itb
max_insts_all_threads=0
max_insts_any_thread=0
max_loads_all_threads=0
max_loads_any_thread=0
numThreads=1
numa=false
profile=0
progress_interval=0
simpoint_start_insts=
simulate_data_stalls=false
simulate_inst_stalls=false
socket_id=0
switched_out=false
system=system
tracer=system.cpu07.tracer
width=1
workload=
dcache_port=system.cpu07.dcache.cpu_side
icache_port=system.cpu07.icache.cpu_side

[system.cpu07.dcache]
type=Cache
children=tags
addr_ranges=0:18446744073709551615
assoc=2
clk_domain=system.cpu_clk_domain
clusivity=mostly_incl
demand_mshr_reserve=1
eventq_index=0
forward_snoops=true
hit_latency=2
is_read_only=false
max_miss_count=0
mshrs=4
numa=false
prefetch_on_access=false
prefetcher=Null
response_latency=2
sequential_access=false
size=32768
system=system
tags=system.cpu07.dcache.tags
tgts_per_mshr=20
write_buffers=8
writeback_clean=false
cpu_side=system.cpu07.dcache_port
mem_side=system.tol2bus.slave[15]

[system.cpu07.dcache.tags]
type=LRU
assoc=2
block_size=64
clk_domain=system.cpu_clk_domain
eventq_index=0
hit_latency=2
sequential_access=false
size=32768

[system.cpu07.dtb]
type=AlphaTLB
eventq_index=0
size=64

[system.cpu07.icache]
type=Cache
children=tags
addr_ranges=0:18446744073709551615
assoc=2
clk_domain=system.cpu_clk_domain
clusivity=mostly_incl
demand_mshr_reserve=1
eventq_index=0
forward_snoops=true
hit_latency=2
is_read_only=true
max_miss_count=0
mshrs=4
numa=false
prefetch_on_access=false
prefetcher=Null
response_latency=2
sequential_access=false
size=32768
system=system
tags=system.cpu07.icache.tags
tgts_per_mshr=20
write_buffers=8
writeback_clean=true
cpu_side=system.cpu07.icache_port
mem_side=system.tol2bus.slave[14]

[system.cpu07.icache.tags]
type=LRU
assoc=2
block_size=64
clk_domain=system.cpu_clk_domain
eventq_index=0
hit_latency=2
sequential_access=false
size=32768

[system.cpu07.interrupts]
type=AlphaInterrupts
eventq_index=0

[system.cpu07.isa]
type=AlphaISA
eventq_index=0
system=system

[system.cpu07.itb]
type=AlphaTLB
eventq_index=0
size=48

[system.cpu07.tracer]
type=ExeTracer
eventq_index=0

[system.cpu08]
type=AtomicSimpleCPU
children=dcache dtb icache interrupts isa itb tracer
branchPred=Null
checker=Null
clk_domain=system.cpu_clk_domain
cpu_id=8
do_checkpoint_insts=true
do_quiesce=true
do_statistics_insts=true
dtb=system.cpu08.dtb
eventq_index=0
fastmem=false
function_trace=false
function_trace_start=0
interrupts=system.cpu08.interrupts
isa=system.cpu08.isa
itb=system.cpu08.itb
max_insts_all_threads=0
max_insts_any_thread=0
max_loads_all_threads=0
max_loads_any_thread=0
numThreads=1
numa=false
profile=0
progress_interval=0
simpoint_start_insts=
simulate_data_stalls=false
simulate_inst_stalls=false
socket_id=0
switched_out=false
system=system
tracer=system.cpu08.tracer
width=1
workload=
dcache_port=system.cpu08.dcache.cpu_side
icache_port=system.cpu08.icache.cpu_side

[system.cpu08.dcache]
type=Cache
children=tags
addr_ranges=0:18446744073709551615
assoc=2
clk_domain=system.cpu_clk_domain
clusivity=mostly_incl
demand_mshr_reserve=1
eventq_index=0
forward_snoops=true
hit_latency=2
is_read_only=false
max_miss_count=0
mshrs=4
numa=false
prefetch_on_access=false
prefetcher=Null
response_latency=2
sequential_access=false
size=32768
system=system
tags=system.cpu08.dcache.tags
tgts_per_mshr=20
write_buffers=8
writeback_clean=false
cpu_side=system.cpu08.dcache_port
mem_side=system.tol2bus.slave[17]

[system.cpu08.dcache.tags]
type=LRU
assoc=2
block_size=64
clk_domain=system.cpu_clk_domain
eventq_index=0
hit_latency=2
sequential_access=false
size=32768

[system.cpu08.dtb]
type=AlphaTLB
eventq_index=0
size=64

[system.cpu08.icache]
type=Cache
children=tags
addr_ranges=0:18446744073709551615
assoc=2
clk_domain=system.cpu_clk_domain
clusivity=mostly_incl
demand_mshr_reserve=1
eventq_index=0
forward_snoops=true
hit_latency=2
is_read_only=true
max_miss_count=0
mshrs=4
numa=false
prefetch_on_access=false
prefetcher=Null
response_latency=2
sequential_access=false
size=32768
system=system
tags=system.cpu08.icache.tags
tgts_per_mshr=20
write_buffers=8
writeback_clean=true
cpu_side=system.cpu08.icache_port
mem_side=system.tol2bus.slave[16]

[system.cpu08.icache.tags]
type=LRU
assoc=2
block_size=64
clk_domain=system.cpu_clk_domain
eventq_index=0
hit_latency=2
sequential_access=false
size=32768

[system.cpu08.interrupts]
type=AlphaInterrupts
eventq_index=0

[system.cpu08.isa]
type=AlphaISA
eventq_index=0
system=system

[system.cpu08.itb]
type=AlphaTLB
eventq_index=0
size=48

[system.cpu08.tracer]
type=ExeTracer
eventq_index=0

[system.cpu09]
type=AtomicSimpleCPU
children=dcache dtb icache interrupts isa itb tracer
branchPred=Null
checker=Null
clk_domain=system.cpu_clk_domain
cpu_id=9
do_checkpoint_insts=true
do_quiesce=true
do_statistics_insts=true
dtb=system.cpu09.dtb
eventq_index=0
fastmem=false
function_trace=false
function_trace_start=0
interrupts=system.cpu09.interrupts
isa=system.cpu09.isa
itb=system.cpu09.itb
max_insts_all_threads=0
max_insts_any_thread=0
max_loads_all_threads=0
max_loads_any_thread=0
numThreads=1
numa=false
profile=0
progress_interval=0
simpoint_start_insts=
simulate_data_stalls=false
simulate_inst_stalls=false
socket_id=0
switched_out=false
system=system
tracer=system.cpu09.tracer
width=1
workload=
dcache_port=system.cpu09.dcache.cpu_side
icache_port=system.cpu09.icache.cpu_side

[system.cpu09.dcache]
type=Cache
children=tags
addr_ranges=0:18446744073709551615
assoc=2
clk_domain=system.cpu_clk_domain
clusivity=mostly_incl
demand_mshr_reserve=1
eventq_index=0
forward_snoops=true
hit_latency=2
is_read_only=false
max_miss_count=0
mshrs=4
numa=false
prefetch_on_access=false
prefetcher=Null
response_latency=2
sequential_access=false
size=32768
system=system
tags=system.cpu09.dcache.tags
tgts_per_mshr=20
write_buffers=8
writeback_clean=false
cpu_side=system.cpu09.dcache_port
mem_side=system.tol2bus.slave[19]

[system.cpu09.dcache.tags]
type=LRU
assoc=2
block_size=64
clk_domain=system.cpu_clk_domain
eventq_index=0
hit_latency=2
sequential_access=false
size=32768

[system.cpu09.dtb]
type=AlphaTLB
eventq_index=0
size=64

[system.cpu09.icache]
type=Cache
children=tags
addr_ranges=0:18446744073709551615
assoc=2
clk_domain=system.cpu_clk_domain
clusivity=mostly_incl
demand_mshr_reserve=1
eventq_index=0
forward_snoops=true
hit_latency=2
is_read_only=true
max_miss_count=0
mshrs=4
numa=false
prefetch_on_access=false
prefetcher=Null
response_latency=2
sequential_access=false
size=32768
system=system
tags=system.cpu09.icache.tags
tgts_per_mshr=20
write_buffers=8
writeback_clean=true
cpu_side=system.cpu09.icache_port
mem_side=system.tol2bus.slave[18]

[system.cpu09.icache.tags]
type=LRU
assoc=2
block_size=64
clk_domain=system.cpu_clk_domain
eventq_index=0
hit_latency=2
sequential_access=false
size=32768

[system.cpu09.interrupts]
type=AlphaInterrupts
eventq_index=0

[system.cpu09.isa]
type=AlphaISA
eventq_index=0
system=system

[system.cpu09.itb]
type=AlphaTLB
eventq_index=0
size=48

[system.cpu09.tracer]
type=ExeTracer
eventq_index=0

[system.cpu10]
type=AtomicSimpleCPU
children=dcache dtb icache interrupts isa itb tracer
branchPred=Null
checker=Null
clk_domain=system.cpu_clk_domain
cpu_id=10
do_checkpoint_insts=true
do_quiesce=true
do_statistics_insts=true
dtb=system.cpu10.dtb
eventq_index=0
fastmem=false
function_trace=false
function_trace_start=0
interrupts=system.cpu10.interrupts
isa=system.cpu10.isa
itb=system.cpu10.itb
max_insts_all_threads=0
max_insts_any_thread=0
max_loads_all_threads=0
max_loads_any_thread=0
numThreads=1
numa=false
profile=0
progress_interval=0
simpoint_start_insts=
simulate_data_stalls=false
simulate_inst_stalls=false
socket_id=0
switched_out=false
system=system
tracer=system.cpu10.tracer
width=1
workload=
dcache_port=system.cpu10.dcache.cpu_side
icache_port=system.cpu10.icache.cpu_side

[system.cpu10.dcache]
type=Cache
children=tags
addr_ranges=0:18446744073709551615
assoc=2
clk_domain=system.cpu_clk_domain
clusivity=mostly_incl
demand_mshr_reserve=1
eventq_index=0
forward_snoops=true
hit_latency=2
is_read_only=false
max_miss_count=0
mshrs=4
numa=false
prefetch_on_access=false
prefetcher=Null
response_latency=2
sequential_access=false
size=32768
system=system
tags=system.cpu10.dcache.tags
tgts_per_mshr=20
write_buffers=8
writeback_clean=false
cpu_side=system.cpu10.dcache_port
mem_side=system.tol2bus.slave[21]

[system.cpu10.dcache.tags]
type=LRU
assoc=2
block_size=64
clk_domain=system.cpu_clk_domain
eventq_index=0
hit_latency=2
sequential_access=false
size=32768

[system.cpu10.dtb]
type=AlphaTLB
eventq_index=0
size=64

[system.cpu10.icache]
type=Cache
children=tags
addr_ranges=0:18446744073709551615
assoc=2
clk_domain=system.cpu_clk_domain
clusivity=mostly_incl
demand_mshr_reserve=1
eventq_index=0
forward_snoops=true
hit_latency=2
is_read_only=true
max_miss_count=0
mshrs=4
numa=false
prefetch_on_access=false
prefetcher=Null
response_latency=2
sequential_access=false
size=32768
system=system
tags=system.cpu10.icache.tags
tgts_per_mshr=20
write_buffers=8
writeback_clean=true
cpu_side=system.cpu10.icache_port
mem_side=system.tol2bus.slave[20]

[system.cpu10.icache.tags]
type=LRU
assoc=2
block_size=64
clk_domain=system.cpu_clk_domain
eventq_index=0
hit_latency=2
sequential_access=false
size=32768

[system.cpu10.interrupts]
type=AlphaInterrupts
eventq_index=0

[system.cpu10.isa]
type=AlphaISA
eventq_index=0
system=system

[system.cpu10.itb]
type=AlphaTLB
eventq_index=0
size=48

[system.cpu10.tracer]
type=ExeTracer
eventq_index=0

[system.cpu11]
type=AtomicSimpleCPU
children=dcache dtb icache interrupts isa itb tracer
branchPred=Null
checker=Null
clk_domain=system.cpu_clk_domain
cpu_id=11
do_checkpoint_insts=true
do_quiesce=true
do_statistics_insts=true
dtb=system.cpu11.dtb
eventq_index=0
fastmem=false
function_trace=false
function_trace_start=0
interrupts=system.cpu11.interrupts
isa=system.cpu11.isa
itb=system.cpu11.itb
max_insts_all_threads=0
max_insts_any_thread=0
max_loads_all_threads=0
max_loads_any_thread=0
numThreads=1
numa=false
profile=0
progress_interval=0
simpoint_start_insts=
simulate_data_stalls=false
simulate_inst_stalls=false
socket_id=0
switched_out=false
system=system
tracer=system.cpu11.tracer
width=1
workload=
dcache_port=system.cpu11.dcache.cpu_side
icache_port=system.cpu11.icache.cpu_side

[system.cpu11.dcache]
type=Cache
children=tags
addr_ranges=0:18446744073709551615
assoc=2
clk_domain=system.cpu_clk_domain
clusivity=mostly_incl
demand_mshr_reserve=1
eventq_index=0
forward_snoops=true
hit_latency=2