[root]
type=Root
children=system
eventq_index=0
full_system=true
sim_quantum=0
time_sync_enable=false
time_sync_period=100000000000
time_sync_spin_threshold=100000000

[system]
type=LinuxArmSystem
children=bridge cf0 clk_domain cpu0 cpu1 cpu_clk_domain dvfs_handler intrctrl iobus iocache l2c membus physmem realview terminal toL2Bus vncserver voltage_domain
atags_addr=134217728
boot_loader=/arm/projectscratch/randd/systems/dist/binaries/boot_emm.arm
boot_osflags=earlyprintk=pl011,0x1c090000 console=ttyAMA0 lpj=19988480 norandmaps rw loglevel=8 mem=256MB root=/dev/sda1
cache_line_size=64
clk_domain=system.clk_domain
default_p_state=UNDEFINED
dtb_filename=/arm/projectscratch/randd/systems/dist/binaries/vexpress.aarch32.ll_20131205.0-gem5.2cpu.dtb
early_kernel_symbols=false
enable_context_switch_stats_dump=false
eventq_index=0
exit_on_work_items=false
flags_addr=469827632
gic_cpu_addr=738205696
have_large_asid_64=false
have_lpae=true
have_security=false
have_virtualization=false
highest_el_is_64=false
init_param=0
kernel=/arm/projectscratch/randd/systems/dist/binaries/vmlinux.aarch32.ll_20131205.0-gem5
kernel_addr_check=true
load_addr_mask=268435455
load_offset=2147483648
machine_type=VExpress_EMM
mem_mode=timing
mem_ranges=2147483648:2415919103:0:0:0:0
memories=system.physmem system.realview.nvmem system.realview.vram
mmap_using_noreserve=false
multi_proc=true
multi_thread=false
num_work_ids=16
p_state_clk_gate_bins=20
p_state_clk_gate_max=1000000000000
p_state_clk_gate_min=1000
panic_on_oops=true
panic_on_panic=true
phys_addr_range_64=40
power_model=Null
readfile=/work/curdun01/gem5-external.hg/tests/testing/../halt.sh
reset_addr_64=0
symbolfile=
thermal_components=
thermal_model=Null
work_begin_ckpt_count=0
work_begin_cpu_id_exit=-1
work_begin_exit_count=0
work_cpus_ckpt_count=0
work_end_ckpt_count=0
work_end_exit_count=0
work_item_id=-1
system_port=system.membus.slave[1]

[system.bridge]
type=Bridge
clk_domain=system.clk_domain
default_p_state=UNDEFINED
delay=50000
eventq_index=0
p_state_clk_gate_bins=20
p_state_clk_gate_max=1000000000000
p_state_clk_gate_min=1000
power_model=Null
ranges=788529152:805306367:0:0:0:0 721420288:725614591:0:0:0:0 805306368:1073741823:0:0:0:0 1073741824:1610612735:0:0:0:0 402653184:469762047:0:0:0:0 469762048:536870911:0:0:0:0
req_size=16
resp_size=16
master=system.iobus.slave[0]
slave=system.membus.master[0]

[system.cf0]
type=IdeDisk
children=image
delay=1000000
driveID=master
eventq_index=0
image=system.cf0.image

[system.cf0.image]
type=CowDiskImage
children=child
child=system.cf0.image.child
eventq_index=0
image_file=
read_only=false
table_size=65536

[system.cf0.image.child]
type=RawDiskImage
eventq_index=0
image_file=/arm/projectscratch/randd/systems/dist/disks/linux-aarch32-ael.img
read_only=true

[system.clk_domain]
type=SrcClockDomain
clock=1000
domain_id=-1
eventq_index=0
init_perf_level=0
voltage_domain=system.voltage_domain

[system.cpu0]
type=DerivO3CPU
children=branchPred dcache dstage2_mmu dtb fuPool icache interrupts isa istage2_mmu itb l2cache toL2Bus tracer
LFSTSize=1024
LQEntries=16
LSQCheckLoads=true
LSQDepCheckShift=0
SQEntries=16
SSITSize=1024
activity=0
backComSize=5
branchPred=system.cpu0.branchPred
cachePorts=200
checker=Null
clk_domain=system.cpu_clk_domain
commitToDecodeDelay=1
commitToFetchDelay=1
commitToIEWDelay=1
commitToRenameDelay=1
commitWidth=8
cpu_id=0
decodeToFetchDelay=1
decodeToRenameDelay=2
decodeWidth=3
default_p_state=UNDEFINED
dispatchWidth=6
do_checkpoint_insts=true
do_quiesce=true
do_statistics_insts=true
dstage2_mmu=system.cpu0.dstage2_mmu
dtb=system.cpu0.dtb
eventq_index=0
fetchBufferSize=16
fetchQueueSize=32
fetchToDecodeDelay=3
fetchTrapLatency=1
fetchWidth=3
forwardComSize=5
fuPool=system.cpu0.fuPool
function_trace=false
function_trace_start=0
iewToCommitDelay=1
iewToDecodeDelay=1
iewToFetchDelay=1
iewToRenameDelay=1
interrupts=system.cpu0.interrupts
isa=system.cpu0.isa
issueToExecuteDelay=1
issueWidth=8
istage2_mmu=system.cpu0.istage2_mmu
itb=system.cpu0.itb
max_insts_all_threads=0
max_insts_any_thread=0
max_loads_all_threads=0
max_loads_any_thread=0
needsTSO=false
numIQEntries=32
numPhysCCRegs=640
numPhysFloatRegs=192
numPhysIntRegs=128
numROBEntries=40
numRobs=1
numThreads=1
p_state_clk_gate_bins=20
p_state_clk_gate_max=1000000000000
p_state_clk_gate_min=1000
power_model=Null
profile=0
progress_interval=0
renameToDecodeDelay=1
renameToFetchDelay=1
renameToIEWDelay=1
renameToROBDelay=1
renameWidth=3
simpoint_start_insts=
smtCommitPolicy=RoundRobin
smtFetchPolicy=SingleThread
smtIQPolicy=Partitioned
smtIQThreshold=100
smtLSQPolicy=Partitioned
smtLSQThreshold=100
smtNumFetchingThreads=1
smtROBPolicy=Partitioned
smtROBThreshold=100
socket_id=0
squashWidth=8
store_set_clear_period=250000
switched_out=false
system=system
tracer=system.cpu0.tracer
trapLatency=13
wbWidth=8
workload=
dcache_port=system.cpu0.dcache.cpu_side
icache_port=system.cpu0.icache.cpu_side

[system.cpu0.branchPred]
type=BiModeBP
BTBEntries=2048
BTBTagSize=18
RASSize=16
choiceCtrBits=2
choicePredictorSize=8192
eventq_index=0
globalCtrBits=2
globalPredictorSize=8192
indirectHashGHR=true
indirectHashTargets=true
indirectPathLength=3
indirectSets=256
indirectTagSize=16
indirectWays=2
instShiftAmt=2
numThreads=1
useIndirect=true

[system.cpu0.dcache]
type=Cache
children=tags
addr_ranges=0:18446744073709551615:0:0:0:0
assoc=2
clk_domain=system.cpu_clk_domain
clusivity=mostly_incl
default_p_state=UNDEFINED
demand_mshr_reserve=1
eventq_index=0
hit_latency=2
is_read_only=false
max_miss_count=0
mshrs=6
p_state_clk_gate_bins=20
p_state_clk_gate_max=1000000000000
p_state_clk_gate_min=1000
power_model=Null
prefetch_on_access=false
prefetcher=Null
response_latency=2
sequential_access=false
size=32768
system=system
tags=system.cpu0.dcache.tags
tgts_per_mshr=8
write_buffers=16
writeback_clean=true
cpu_side=system.cpu0.dcache_port
mem_side=system.cpu0.toL2Bus.slave[1]

[system.cpu0.dcache.tags]
type=LRU
assoc=2
block_size=64
clk_domain=system.cpu_clk_domain
default_p_state=UNDEFINED
eventq_index=0
hit_latency=2
p_state_clk_gate_bins=20
p_state_clk_gate_max=1000000000000
p_state_clk_gate_min=1000
power_model=Null
sequential_access=false
size=32768

[system.cpu0.dstage2_mmu]
type=ArmStage2MMU
children=stage2_tlb
eventq_index=0
stage2_tlb=system.cpu0.dstage2_mmu.stage2_tlb
sys=system
tlb=system.cpu0.dtb

[system.cpu0.dstage2_mmu.stage2_tlb]
type=ArmTLB
children=walker
eventq_index=0
is_stage2=true
size=32
walker=system.cpu0.dstage2_mmu.stage2_tlb.walker

[system.cpu0.dstage2_mmu.stage2_tlb.walker]
type=ArmTableWalker
clk_domain=system.cpu_clk_domain
default_p_state=UNDEFINED
eventq_index=0
is_stage2=true
num_squash_per_cycle=2
p_state_clk_gate_bins=20
p_state_clk_gate_max=1000000000000
p_state_clk_gate_min=1000
power_model=Null
sys=system

[system.cpu0.dtb]
type=ArmTLB
children=walker
eventq_index=0
is_stage2=false
size=64
walker=system.cpu0.dtb.walker

[system.cpu0.dtb.walker]
type=ArmTableWalker
clk_domain=system.cpu_clk_domain
default_p_state=UNDEFINED
eventq_index=0
is_stage2=false
num_squash_per_cycle=2
p_state_clk_gate_bins=20
p_state_clk_gate_max=1000000000000
p_state_clk_gate_min=1000
power_model=Null
sys=system
port=system.cpu0.toL2Bus.slave[3]

[system.cpu0.fuPool]
type=FUPool
children=FUList0 FUList1 FUList2 FUList3 FUList4
FUList=system.cpu0.fuPool.FUList0 system.cpu0.fuPool.FUList1 system.cpu0.fuPool.FUList2 system.cpu0.fuPool.FUList3 system.cpu0.fuPool.FUList4
eventq_index=0

[system.cpu0.fuPool.FUList0]
type=FUDesc
children=opList
count=2
eventq_index=0
opList=system.cpu0.fuPool.FUList0.opList

[system.cpu0.fuPool.FUList0.opList]
type=OpDesc
eventq_index=0
opClass=IntAlu
opLat=1
pipelined=true

[system.cpu0.fuPool.FUList1]
type=FUDesc
children=opList0 opList1 opList2
count=1
eventq_index=0
opList=system.cpu0.fuPool.FUList1.opList0 system.cpu0.fuPool.FUList1.opList1 system.cpu0.fuPool.FUList1.opList2

[system.cpu0.fuPool.FUList1.opList0]
type=OpDesc
eventq_index=0
opClass=IntMult
opLat=3
pipelined=true

[system.cpu0.fuPool.FUList1.opList1]
type=OpDesc
eventq_index=0
opClass=IntDiv
opLat=12
pipelined=false

[system.cpu0.fuPool.FUList1.opList2]
type=OpDesc
eventq_index=0
opClass=IprAccess
opLat=3
pipelined=true

[system.cpu0.fuPool.FUList2]
type=FUDesc
children=opList
count=1
eventq_index=0
opList=system.cpu0.fuPool.FUList2.opList

[system.cpu0.fuPool.FUList2.opList]
type=OpDesc
eventq_index=0
opClass=MemRead
opLat=2
pipelined=true

[system.cpu0.fuPool.FUList3]
type=FUDesc
children=opList
count=1
eventq_index=0
opList=system.cpu0.fuPool.FUList3.opList

[system.cpu0.fuPool.FUList3.opList]
type=OpDesc
eventq_index=0
opClass=MemWrite
opLat=2
pipelined=true

[system.cpu0.fuPool.FUList4]
type=FUDesc
children=opList00 opList01 opList02 opList03 opList04 opList05 opList06 opList07 opList08 opList09 opList10 opList11 opList12 opList13 opList14 opList15 opList16 opList17 opList18 opList19 opList20 opList21 opList22 opList23 opList24 opList25
count=2
eventq_index=0
opList=system.cpu0.fuPool.FUList4.opList00 system.cpu0.fuPool.FUList4.opList01 system.cpu0.fuPool.FUList4.opList02 system.cpu0.fuPool.FUList4.opList03 system.cpu0.fuPool.FUList4.opList04 system.cpu0.fuPool.FUList4.opList05 system.cpu0.fuPool.FUList4.opList06 system.cpu0.fuPool.FUList4.opList07 system.cpu0.fuPool.FUList4.opList08 system.cpu0.fuPool.FUList4.opList09 system.cpu0.fuPool.FUList4.opList10 system.cpu0.fuPool.FUList4.opList11 system.cpu0.fuPool.FUList4.opList12 system.cpu0.fuPool.FUList4.opList13 system.cpu0.fuPool.FUList4.opList14 system.cpu0.fuPool.FUList4.opList15 system.cpu0.fuPool.FUList4.opList16 system.cpu0.fuPool.FUList4.opList17 system.cpu0.fuPool.FUList4.opList18 system.cpu0.fuPool.FUList4.opList19 system.cpu0.fuPool.FUList4.opList20 system.cpu0.fuPool.FUList4.opList21 system.cpu0.fuPool.FUList4.opList22 system.cpu0.fuPool.FUList4.opList23 system.cpu0.fuPool.FUList4.opList24 system.cpu0.fuPool.FUList4.opList25

[system.cpu0.fuPool.FUList4.opList00]
type=OpDesc
eventq_index=0
opClass=SimdAdd
opLat=4
pipelined=true

[system.cpu0.fuPool.FUList4.opList01]
type=OpDesc
eventq_index=0
opClass=SimdAddAcc
opLat=4
pipelined=true

[system.cpu0.fuPool.FUList4.opList02]
type=OpDesc
eventq_index=0
opClass=SimdAlu
opLat=4
pipelined=true

[system.cpu0.fuPool.FUList4.opList03]
type=OpDesc
eventq_index=0
opClass=SimdCmp
opLat=4
pipelined=true

[system.cpu0.fuPool.FUList4.opList04]
type=OpDesc
eventq_index=0
opClass=SimdCvt
opLat=3
pipelined=true

[system.cpu0.fuPool.FUList4.opList05]
type=OpDesc
eventq_index=0
opClass=SimdMisc
opLat=3
pipelined=true

[system.cpu0.fuPool.FUList4.opList06]
type=OpDesc
eventq_index=0
opClass=SimdMult
opLat=5
pipelined=true

[system.cpu0.fuPool.FUList4.opList07]
type=OpDesc
eventq_index=0
opClass=SimdMultAcc
opLat=5
pipelined=true

[system.cpu0.fuPool.FUList4.opList08]
type=OpDesc
eventq_index=0
opClass=SimdShift
opLat=3
pipelined=true

[system.cpu0.fuPool.FUList4.opList09]
type=OpDesc
eventq_index=0
opClass=SimdShiftAcc
opLat=3
pipelined=true

[system.cpu0.fuPool.FUList4.opList10]
type=OpDesc
eventq_index=0
opClass=SimdSqrt
opLat=9
pipelined=true

[system.cpu0.fuPool.FUList4.opList11]
type=OpDesc
eventq_index=0
opClass=SimdFloatAdd
opLat=5
pipelined=true

[system.cpu0.fuPool.FUList4.opList12]
type=OpDesc
eventq_index=0
opClass=SimdFloatAlu
opLat=5
pipelined=true

[system.cpu0.fuPool.FUList4.opList13]
type=OpDesc
eventq_index=0
opClass=SimdFloatCmp
opLat=3
pipelined=true

[system.cpu0.fuPool.FUList4.opList14]
type=OpDesc
eventq_index=0
opClass=SimdFloatCvt
opLat=3
pipelined=true

[system.cpu0.fuPool.FUList4.opList15]
type=OpDesc
eventq_index=0
opClass=SimdFloatDiv
opLat=3
pipelined=true

[system.cpu0.fuPool.FUList4.opList16]
type=OpDesc
eventq_index=0
opClass=SimdFloatMisc
opLat=3
pipelined=true

[system.cpu0.fuPool.FUList4.opList17]
type=OpDesc
eventq_index=0
opClass=SimdFloatMult
opLat=3
pipelined=true

[system.cpu0.fuPool.FUList4.opList18]
type=OpDesc
eventq_index=0
opClass=SimdFloatMultAcc
opLat=1
pipelined=true

[system.cpu0.fuPool.FUList4.opList19]
type=OpDesc
eventq_index=0
opClass=SimdFloatSqrt
opLat=9
pipelined=true

[system.cpu0.fuPool.FUList4.opList20]
type=OpDesc
eventq_index=0
opClass=FloatAdd
opLat=5
pipelined=true

[system.cpu0.fuPool.FUList4.opList21]
type=OpDesc
eventq_index=0
opClass=FloatCmp
opLat=5
pipelined=true

[system.cpu0.fuPool.FUList4.opList22]
type=OpDesc
eventq_index=0
opClass=FloatCvt
opLat=5
pipelined=true

[system.cpu0.fuPool.FUList4.opList23]
type=OpDesc
eventq_index=0
opClass=FloatDiv
opLat=9
pipelined=false

[system.cpu0.fuPool.FUList4.opList24]
type=OpDesc
eventq_index=0
opClass=FloatSqrt
opLat=33
pipelined=false

[system.cpu0.fuPool.FUList4.opList25]
type=OpDesc
eventq_index=0
opClass=FloatMult
opLat=4
pipelined=true

[system.cpu0.icache]
type=Cache
children=tags
addr_ranges=0:18446744073709551615:0:0:0:0
assoc=2
clk_domain=system.cpu_clk_domain
clusivity=mostly_incl
default_p_state=UNDEFINED
demand_mshr_reserve=1
eventq_index=0
hit_latency=1
is_read_only=true
max_miss_count=0
mshrs=2
p_state_clk_gate_bins=20
p_state_clk_gate_max=1000000000000
p_state_clk_gate_min=1000
power_model=Null
prefetch_on_access=false
prefetcher=Null
response_latency=1
sequential_access=false
size=32768
system=system
tags=system.cpu0.icache.tags
tgts_per_mshr=8
write_buffers=8
writeback_clean=true
cpu_side=system.cpu0.icache_port
mem_side=system.cpu0.toL2Bus.slave[0]

[system.cpu0.icache.tags]
type=LRU
assoc=2
block_size=64
clk_domain=system.cpu_clk_domain
default_p_state=UNDEFINED
eventq_index=0
hit_latency=1
p_state_clk_gate_bins=20
p_state_clk_gate_max=1000000000000
p_state_clk_gate_min=1000
power_model=Null
sequential_access=false
size=32768

[system.cpu0.interrupts]
type=ArmInterrupts
eventq_index=0

[system.cpu0.isa]
type=ArmISA
decoderFlavour=Generic
eventq_index=0
fpsid=1090793632
id_aa64afr0_el1=0
id_aa64afr1_el1=0
id_aa64dfr0_el1=1052678
id_aa64dfr1_el1=0
id_aa64isar0_el1=0
id_aa64isar1_el1=0
id_aa64mmfr0_el1=15728642
id_aa64mmfr1_el1=0
id_aa64pfr0_el1=34
id_aa64pfr1_el1=0
id_isar0=34607377
id_isar1=34677009
id_isar2=555950401
id_isar3=17899825
id_isar4=268501314
id_isar5=0
id_mmfr0=270536963
id_mmfr1=0
id_mmfr2=19070976
id_mmfr3=34611729
id_pfr0=49
id_pfr1=4113
midr=1091551472
pmu=Null
system=system

[system.cpu0.istage2_mmu]
type=ArmStage2MMU
children=stage2_tlb
eventq_index=0
stage2_tlb=system.cpu0.istage2_mmu.stage2_tlb
sys=system
tlb=system.cpu0.itb

[system.cpu0.istage2_mmu.stage2_tlb]
type=ArmTLB
children=walker
eventq_index=0
is_stage2=true
size=32
walker=system.cpu0.istage2_mmu.stage2_tlb.walker

[system.cpu0.istage2_mmu.stage2_tlb.walker]
type=ArmTableWalker
clk_domain=system.cpu_clk_domain
default_p_state=UNDEFINED
eventq_index=0
is_stage2=true
num_squash_per_cycle=2
p_state_clk_gate_bins=20
p_state_clk_gate_max=1000000000000
p_state_clk_gate_min=1000
power_model=Null
sys=system

[system.cpu0.itb]
type=ArmTLB
children=walker
eventq_index=0
is_stage2=false
size=64
walker=system.cpu0.itb.walker

[system.cpu0.itb.walker]
type=ArmTableWalker
clk_domain=system.cpu_clk_domain
default_p_state=UNDEFINED
eventq_index=0
is_stage2=false
num_squash_per_cycle=2
p_state_clk_gate_bins=20
p_state_clk_gate_max=1000000000000
p_state_clk_gate_min=1000
power_model=Null
sys=system
port=system.cpu0.toL2Bus.slave[2]

[system.cpu0.l2cache]
type=Cache
children=prefetcher tags
addr_ranges=0:18446744073709551615:0:0:0:0
assoc=16
clk_domain=system.cpu_clk_domain
clusivity=mostly_excl
default_p_state=UNDEFINED
demand_mshr_reserve=1
eventq_index=0
hit_latency=12
is_read_only=false
max_miss_count=0
mshrs=16
p_state_clk_gate_bins=20
p_state_clk_gate_max=1000000000000
p_state_clk_gate_min=1000
power_model=Null
prefetch_on_access=true
prefetcher=system.cpu0.l2cache.prefetcher
response_latency=12
sequential_access=false
size=1048576
system=system
tags=system.cpu0.l2cache.tags
tgts_per_mshr=8
write_buffers=8
writeback_clean=false
cpu_side=system.cpu0.toL2Bus.master[0]
mem_side=system.toL2Bus.slave[0]

[system.cpu0.l2cache.prefetcher]
type=StridePrefetcher
cache_snoop=false
clk_domain=system.cpu_clk_domain
default_p_state=UNDEFINED
degree=8
eventq_index=0
latency=1
max_conf=7
min_conf=0
on_data=true
on_inst=true
on_miss=false
on_read=true
on_write=true
p_state_clk_gate_bins=20
p_state_clk_gate_max=1000000000000
p_state_clk_gate_min=1000
power_model=Null
queue_filter=true
queue_size=32
queue_squash=true
start_conf=4
sys=system
table_assoc=4
table_sets=16
tag_prefetch=true
thresh_conf=4
use_master_id=true

[system.cpu0.l2cache.tags]
type=RandomRepl
assoc=16
block_size=64
clk_domain=system.cpu_clk_domain
default_p_state=UNDEFINED
eventq_index=0
hit_latency=12
p_state_clk_gate_bins=20
p_state_clk_gate_max=1000000000000
p_state_clk_gate_min=1000
power_model=Null
sequential_access=false
size=1048576

[system.cpu0.toL2Bus]
type=CoherentXBar
children=snoop_filter
clk_domain=system.cpu_clk_domain
default_p_state=UNDEFINED
eventq_index=0
forward_latency=0
frontend_latency=1
p_state_clk_gate_bins=20
p_state_clk_gate_max=1000000000000
p_state_clk_gate_min=1000
point_of_coherency=false
power_model=Null
response_latency=1
snoop_filter=system.cpu0.toL2Bus.snoop_filter
snoop_response_latency=1
system=system
use_default_range=false
width=32
master=system.cpu0.l2cache.cpu_side
slave=system.cpu0.icache.mem_side system.cpu0.dcache.mem_side system.cpu0.itb.walker.port system.cpu0.dtb.walker.port

[system.cpu0.toL2Bus.snoop_filter]
type=SnoopFilter
eventq_index=0
lookup_latency=0
max_capacity=8388608
system=system

[system.cpu0.tracer]
type=ExeTracer
eventq_index=0

[system.cpu1]
type=DerivO3CPU
children=branchPred dcache dstage2_mmu dtb fuPool icache interrupts isa istage2_mmu itb l2cache toL2Bus tracer
LFSTSize=1024
LQEntries=16
LSQCheckLoads=true
LSQDepCheckShift=0
SQEntries=16
SSITSize=1024
activity=0
backComSize=5
branchPred=system.cpu1.branchPred
cachePorts=200
checker=Null
clk_domain=system.cpu_clk_domain
commitToDecodeDelay=1
commitToFetchDelay=1
commitToIEWDelay=1
commitToRenameDelay=1
commitWidth=8
cpu_id=1
decodeToFetchDelay=1
decodeToRenameDelay=2
decodeWidth=3
default_p_state=UNDEFINED
dispatchWidth=6
do_checkpoint_insts=true
do_quiesce=true
do_statistics_insts=true
dstage2_mmu=system.cpu1.dstage2_mmu
dtb=system.cpu1.dtb
eventq_index=0
fetchBufferSize=16
fetchQueueSize=32
fetchToDecodeDelay=3
fetchTrapLatency=1
fetchWidth=3
forwardComSize=5
fuPool=system.cpu1.fuPool
function_trace=false
function_trace_start=0
iewToCommitDelay=1
iewToDecodeDelay=1
iewToFetchDelay=1
iewToRenameDelay=1
interrupts=system.cpu1.interrupts
isa=system.cpu1.isa
issueToExecuteDelay=1
issueWidth=8
istage2_mmu=system.cpu1.istage2_mmu
itb=system.cpu1.itb
max_insts_all_threads=0
max_insts_any_thread=0
max_loads_all_threads=0
max_loads_any_thread=0
needsTSO=false
numIQEntries=32
numPhysCCRegs=640
numPhysFloatRegs=192
numPhysIntRegs=128
numROBEntries=40
numRobs=1
numThreads=1
p_state_clk_gate_bins=20
p_state_clk_gate_max=1000000000000
p_state_clk_gate_min=1000
power_model=Null
profile=0
progress_interval=0
renameToDecodeDelay=1
renameToFetchDelay=1
renameToIEWDelay=1
renameToROBDelay=1
renameWidth=3
simpoint_start_insts=
smtCommitPolicy=RoundRobin
smtFetchPolicy=SingleThread
smtIQPolicy=Partitioned
smtIQThreshold=100
smtLSQPolicy=Partitioned
smtLSQThreshold=100
smtNumFetchingThreads=1
smtROBPolicy=Partitioned
smtROBThreshold=100
socket_id=0
squashWidth=8
store_set_clear_period=250000
switched_out=false
system=system
tracer=system.cpu1.tracer
trapLatency=13
wbWidth=8
workload=
dcache_port=system.cpu1.dcache.cpu_side
icache_port=system.cpu1.icache.cpu_side

[system.cpu1.branchPred]
type=BiModeBP
BTBEntries=2048
BTBTagSize=18
RASSize=16
choiceCtrBits=2
choicePredictorSize=8192
eventq_index=0
globalCtrBits=2
globalPredictorSize=8192
indirectHashGHR=true
indirectHashTargets=true
indirectPathLength=3
indirectSets=256
indirectTagSize=16
indirectWays=2
instShiftAmt=2
numThreads=1
useIndirect=true

[system.cpu1.dcache]
type=Cache
children=tags
addr_ranges=0:18446744073709551615:0:0:0:0
assoc=2
clk_domain=system.cpu_clk_domain
clusivity=mostly_incl
default_p_state=UNDEFINED
demand_mshr_reserve=1
eventq_index=0
hit_latency=2
is_read_only=false
max_miss_count=0
mshrs=6
p_state_clk_gate_bins=20
p_state_clk_gate_max=1000000000000
p_state_clk_gate_min=1000
power_model=Null
prefetch_on_access=false
prefetcher=Null
response_latency=2
sequential_access=false
size=32768
system=system
tags=system.cpu1.dcache.tags
tgts_per_mshr=8
write_buffers=16
writeback_clean=true
cpu_side=system.cpu1.dcache_port
mem_side=system.cpu1.toL2Bus.slave[1]

[system.cpu1.dcache.tags]
type=LRU
assoc=2
block_size=64
clk_domain=system.cpu_clk_domain
default_p_state=UNDEFINED
eventq_index=0
hit_latency=2
p_state_clk_gate_bins=20
p_state_clk_gate_max=1000000000000
p_state_clk_gate_min=1000
power_model=Null
sequential_access=false
size=32768

[system.cpu1.dstage2_mmu]
type=ArmStage2MMU
children=stage2_tlb
eventq_index=0
stage2_tlb=system.cpu1.dstage2_mmu.stage2_tlb
sys=system
tlb=system.cpu1.dtb

[system.cpu1.dstage2_mmu.stage2_tlb]
type=ArmTLB
children=walker
eventq_index=0
is_stage2=true
size=32
walker=system.cpu1.dstage2_mmu.stage2_tlb.walker

[system.cpu1.dstage2_mmu.stage2_tlb.walker]
type=ArmTableWalker
clk_domain=system.cpu_clk_domain
default_p_state=UNDEFINED
eventq_index=0
is_stage2=true
num_squash_per_cycle=2
p_state_clk_gate_bins=20
p_state_clk_gate_max=1000000000000
p_state_clk_gate_min=1000
power_model=Null
sys=system

[system.cpu1.dtb]
type=ArmTLB
children=walker
eventq_index=0
is_stage2=false
size=64
walker=system.cpu1.dtb.walker

[system.cpu1.dtb.walker]
type=ArmTableWalker
clk_domain=system.cpu_clk_domain
default_p_state=UNDEFINED
eventq_index=0
is_stage2=false
num_squash_per_cycle=2
p_state_clk_gate_bins=20
p_state_clk_gate_max=1000000000000
p_state_clk_gate_min=1000
power_model=Null
sys=system
port=system.cpu1.toL2Bus.slave[3]

[system.cpu1.fuPool]
type=FUPool
children=FUList0 FUList1 FUList2 FUList3 FUList4
FUList=system.cpu1.fuPool.FUList0 system.cpu1.fuPool.FUList1 system.cpu1.fuPool.FUList2 system.cpu1.fuPool.FUList3 system.cpu1.fuPool.FUList4
eventq_index=0

[system.cpu1.fuPool.FUList0]
type=FUDesc
children=opList
count=2
eventq_index=0
opList=system.cpu1.fuPool.FUList0.opList

[system.cpu1.fuPool.FUList0.opList]
type=OpDesc
eventq_index=0
opClass=IntAlu
opLat=1
pipelined=true

[system.cpu1.fuPool.FUList1]
type=FUDesc
children=opList0 opList1 opList2
count=1
eventq_index=0
opList=system.cpu1.fuPool.FUList1.opList0 system.cpu1.fuPool.FUList1.opList1 system.cpu1.fuPool.FUList1.opList2

[system.cpu1.fuPool.FUList1.opList0]
type=OpDesc
eventq_index=0
opClass=IntMult
opLat=3
pipelined=true

[system.cpu1.fuPool.FUList1.opList1]
type=OpDesc
eventq_index=0
opClass=IntDiv
opLat=12
pipelined=false

[system.cpu1.fuPool.FUList1.opList2]
type=OpDesc
eventq_index=0
opClass=IprAccess
opLat=3
pipelined=true

[system.cpu1.fuPool.FUList2]
type=FUDesc
children=opList
count=1
eventq_index=0
opList=system.cpu1.fuPool.FUList2.opList

[system.cpu1.fuPool.FUList2.opList]
type=OpDesc
eventq_index=0
opClass=MemRead
opLat=2
pipelined=true

[system.cpu1.fuPool.FUList3]
type=FUDesc
children=opList
count=1
eventq_index=0
opList=system.cpu1.fuPool.FUList3.opList

[system.cpu1.fuPool.FUList3.opList]
type=OpDesc
eventq_index=0
opClass=MemWrite
opLat=2
pipelined=true

[system.cpu1.fuPool.FUList4]
type=FUDesc
children=opList00 opList01 opList02 opList03 opList04 opList05 opList06 opList07 opList08 opList09 opList10 opList11 opList12 opList13 opList14 opList15 opList16 opList17 opList18 opList19 opList20 opList21 opList22 opList23 opList24 opList25
count=2
eventq_index=0
opList=system.cpu1.fuPool.FUList4.opList00 system.cpu1.fuPool.FUList4.opList01 system.cpu1.fuPool.FUList4.opList02 system.cpu1.fuPool.FUList4.opList03 system.cpu1.fuPool.FUList4.opList04 system.cpu1.fuPool.FUList4.opList05 system.cpu1.fuPool.FUList4.opList06 system.cpu1.fuPool.FUList4.opList07 system.cpu1.fuPool.FUList4.opList08 system.cpu1.fuPool.FUList4.opList09 system.cpu1.fuPool.FUList4.opList10 system.cpu1.fuPool.FUList4.opList11 system.cpu1.fuPool.FUList4.opList12 system.cpu1.fuPool.FUList4.opList13 system.cpu1.fuPool.FUList4.opList14 system.cpu1.fuPool.FUList4.opList15 system.cpu1.fuPool.FUList4.opList16 system.cpu1.fuPool.FUList4.opList17 system.cpu1.fuPool.FUList4.opList18 system.cpu1.fuPool.FUList4.opList19 system.cpu1.fuPool.FUList4.opList20 system.cpu1.fuPool.FUList4.opList21 system.cpu1.fuPool.FUList4.opList22 system.cpu1.fuPool.FUList4.opList23 system.cpu1.fuPool.FUList4.opList24 system.cpu1.fuPool.FUList4.opList25

[system.cpu1.fuPool.FUList4.opList00]
type=OpDesc
eventq_index=0
opClass=SimdAdd
opLat=4
pipelined=true

[system.cpu1.fuPool.FUList4.opList01]
type=OpDesc
eventq_index=0
opClass=SimdAddAcc
opLat=4
pipelined=true

[system.cpu1.fuPool.FUList4.opList02]
type=OpDesc
eventq_index=0
opClass=SimdAlu
opLat=4
pipelined=true

[system.cpu1.fuPool.FUList4.opList03]
type=OpDesc
eventq_index=0
opClass=SimdCmp
opLat=4
pipelined=true

[system.cpu1.fuPool.FUList4.opList04]
type=OpDesc
eventq_index=0
opClass=SimdCvt
opLat=3
pipelined=true

[system.cpu1.fuPool.FUList4.opList05]
type=OpDesc
eventq_index=0
opClass=SimdMisc
opLat=3
pipelined=true

[system.cpu1.fuPool.FUList4.opList06]
type=OpDesc
eventq_index=0
opClass=SimdMult
opLat=5
pipelined=true

[system.cpu1.fuPool.FUList4.opList07]
type=OpDesc
eventq_index=0
opClass=SimdMultAcc
opLat=5
pipelined=true

[system.cpu1.fuPool.FUList4.opList08]
type=OpDesc
eventq_index=0
opClass=SimdShift
opLat=3
pipelined=true

[system.cpu1.fuPool.FUList4.opList09]
type=OpDesc
eventq_index=0
opClass=SimdShiftAcc
opLat=3
pipelined=true

[system.cpu1.fuPool.FUList4.opList10]
type=OpDesc
eventq_index=0
opClass=SimdSqrt
opLat=9
pipelined=true

[system.cpu1.fuPool.FUList4.opList11]
type=OpDesc
eventq_index=0
opClass=SimdFloatAdd
opLat=5
pipelined=true

[system.cpu1.fuPool.FUList4.opList12]
type=OpDesc
eventq_index=0
opClass=SimdFloatAlu
opLat=5
pipelined=true

[system.cpu1.fuPool.FUList4.opList13]
type=OpDesc
eventq_index=0
opClass=SimdFloatCmp
opLat=3
pipelined=true

[system.cpu1.fuPool.FUList4.opList14]
type=OpDesc
eventq_index=0
opClass=SimdFloatCvt
opLat=3
pipelined=true

[system.cpu1.fuPool.FUList4.opList15]
type=OpDesc
eventq_index=0
opClass=SimdFloatDiv
opLat=3
pipelined=true

[system.cpu1.fuPool.FUList4.opList16]
type=OpDesc
eventq_index=0
opClass=SimdFloatMisc
opLat=3
pipelined=true

[system.cpu1.fuPool.FUList4.opList17]
type=OpDesc
eventq_index=0
opClass=SimdFloatMult
opLat=3
pipelined=true

[system.cpu1.fuPool.FUList4.opList18]
type=OpDesc
eventq_index=0
opClass=SimdFloatMultAcc
opLat=1
pipelined=true

[system.cpu1.fuPool.FUList4.opList19]
type=OpDesc
eventq_index=0
opClass=SimdFloatSqrt
opLat=9
pipelined=true

[system.cpu1.fuPool.FUList4.opList20]
type=OpDesc
eventq_index=0
opClass=FloatAdd
opLat=5
pipelined=true

[system.cpu1.fuPool.FUList4.opList21]
type=OpDesc
eventq_index=0
opClass=FloatCmp
opLat=5
pipelined=true

[system.cpu1.fuPool.FUList4.opList22]
type=OpDesc
eventq_index=0
opClass=FloatCvt
opLat=5
pipelined=true

[system.cpu1.fuPool.FUList4.opList23]
type=OpDesc
eventq_index=0
opClass=FloatDiv
opLat=9
pipelined=false

[system.cpu1.fuPool.FUList4.opList24]
type=OpDesc
eventq_index=0
opClass=FloatSqrt
opLat=33
pipelined=false

[system.cpu1.fuPool.FUList4.opList25]
type=OpDesc
eventq_index=0
opClass=FloatMult
opLat=4
pipelined=true

[system.cpu1.icache]
type=Cache
children=tags
addr_ranges=0:18446744073709551615:0:0:0:0
assoc=2
clk_domain=system.cpu_clk_domain
clusivity=mostly_incl
default_p_state=UNDEFINED
demand_mshr_reserve=1
eventq_index=0
hit_latency=1
is_read_only=true
max_miss_count=0
mshrs=2
p_state_clk_gate_bins=20
p_state_clk_gate_max=1000000000000
p_state_clk_gate_min=1000
power_model=Null
prefetch_on_access=false
prefetcher=Null
response_latency=1
sequential_access=false
size=32768
system=system
tags=system.cpu1.icache.tags
tgts_per_mshr=8
write_buffers=8
writeback_clean=true
cpu_side=system.cpu1.icache_port
mem_side=system.cpu1.toL2Bus.slave[0]

[system.cpu1.icache.tags]
type=LRU
assoc=2
block_size=64
clk_domain=system.cpu_clk_domain
default_p_state=UNDEFINED
eventq_index=0
hit_latency=1
p_state_clk_gate_bins=20
p_state_clk_gate_max=1000000000000
p_state_clk_gate_min=1000
power_model=Null
sequential_access=false
size=32768

[system.cpu1.interrupts]
type=ArmInterrupts
eventq_index=0

[system.cpu1.isa]
type=ArmISA
decoderFlavour=Generic
eventq_index=0
fpsid=1090793632
id_aa64afr0_el1=0
id_aa64afr1_el1=0
id_aa64dfr0_el1=1052678
id_aa64dfr1_el1=0
id_aa64isar0_el1=0
id_aa64isar1_el1=0
id_aa64mmfr0_el1=15728642
id_aa64mmfr1_el1=0
id_aa64pfr0_el1=34
id_aa64pfr1_el1=0
id_isar0=34607377
id_isar1=34677009
id_isar2=555950401
id_isar3=17899825
id_isar4=268501314
id_isar5=0
id_mmfr0=270536963
id_mmfr1=0
id_mmfr2=19070976
id_mmfr3=34611729
id_pfr0=49
id_pfr1=4113
midr=1091551472
pmu=Null
system=system

[system.cpu1.istage2_mmu]
type=ArmStage2MMU
children=stage2_tlb
eventq_index=0
stage2_tlb=system.cpu1.istage2_mmu.stage2_tlb
sys=system
tlb=system.cpu1.itb

[system.cpu1.istage2_mmu.stage2_tlb]
type=ArmTLB
children=walker
eventq_index=0
is_stage2=true
size=32
walker=system.cpu1.istage2_mmu.stage2_tlb.walker

[system.cpu1.istage2_mmu.stage2_tlb.walker]
type=ArmTableWalker
clk_domain=system.cpu_clk_domain
default_p_state=UNDEFINED
eventq_index=0
is_stage2=true
num_squash_per_cycle=2
p_state_clk_gate_bins=20
p_state_clk_gate_max=1000000000000
p_state_clk_gate_min=1000
power_model=Null
sys=system

[system.cpu1.itb]
type=ArmTLB
children=walker
eventq_index=0
is_stage2=false
size=64
walker=system.cpu1.itb.walker

[system.cpu1.itb.walker]
type=ArmTableWalker
clk_domain=system.cpu_clk_domain
default_p_state=UNDEFINED
eventq_index=0
is_stage2=false
num_squash_per_cycle=2
p_state_clk_gate_bins=20
p_state_clk_gate_max=1000000000000
p_state_clk_gate_min=1000
power_model=Null
sys=system
port=system.cpu1.toL2Bus.slave[2]

[system.cpu1.l2cache]
type=Cache
children=prefetcher tags
addr_ranges=0:18446744073709551615:0:0:0:0
assoc=16
clk_domain=system.cpu_clk_domain
clusivity=mostly_excl