[root]
type=Root
children=system
eventq_index=0
full_system=true
sim_quantum=0
time_sync_enable=false
time_sync_period=100000000000
time_sync_spin_threshold=100000000

[system]
type=LinuxAlphaSystem
children=bridge clk_domain cpu0 cpu1 cpu_clk_domain disk0 disk2 intrctrl iobus iocache l2c membus physmem simple_disk terminal toL2Bus tsunami voltage_domain
boot_cpu_frequency=500
boot_osflags=root=/dev/hda1 console=ttyS0
cache_line_size=64
clk_domain=system.clk_domain
console=/dist/binaries/console
eventq_index=0
init_param=0
kernel=/dist/binaries/vmlinux
load_addr_mask=1099511627775
mem_mode=atomic
mem_ranges=0:134217727
memories=system.physmem
num_work_ids=16
pal=/dist/binaries/ts_osfpal
readfile=tests/halt.sh
symbolfile=
system_rev=1024
system_type=34
work_begin_ckpt_count=0
work_begin_cpu_id_exit=-1
work_begin_exit_count=0
work_cpus_ckpt_count=0
work_end_ckpt_count=0
work_end_exit_count=0
work_item_id=-1
system_port=system.membus.slave[0]

[system.bridge]
type=Bridge
clk_domain=system.clk_domain
delay=50000
eventq_index=0
ranges=8796093022208:18446744073709551615
req_size=16
resp_size=16
master=system.iobus.slave[0]
slave=system.membus.master[0]

[system.clk_domain]
type=SrcClockDomain
clock=1000
eventq_index=0
voltage_domain=system.voltage_domain

[system.cpu0]
type=AtomicSimpleCPU
children=dcache dtb icache interrupts isa itb tracer
checker=Null
clk_domain=system.cpu_clk_domain
cpu_id=0
do_checkpoint_insts=true
do_quiesce=true
do_statistics_insts=true
dtb=system.cpu0.dtb
eventq_index=0
fastmem=false
function_trace=false
function_trace_start=0
interrupts=system.cpu0.interrupts
isa=system.cpu0.isa
itb=system.cpu0.itb
max_insts_all_threads=0
max_insts_any_thread=0
max_loads_all_threads=0
max_loads_any_thread=0
numThreads=1
profile=0
progress_interval=0
simpoint_interval=100000000
simpoint_profile=false
simpoint_profile_file=simpoint.bb.gz
simpoint_start_insts=
simulate_data_stalls=false
simulate_inst_stalls=false
switched_out=false
system=system
tracer=system.cpu0.tracer
width=1
workload=
dcache_port=system.cpu0.dcache.cpu_side
icache_port=system.cpu0.icache.cpu_side

[system.cpu0.dcache]
type=BaseCache
children=tags
addr_ranges=0:18446744073709551615
assoc=4
clk_domain=system.cpu_clk_domain
eventq_index=0
forward_snoops=true
hit_latency=2
is_top_level=true
max_miss_count=0
mshrs=4
prefetch_on_access=false
prefetcher=Null
response_latency=2
sequential_access=false
size=32768
system=system
tags=system.cpu0.dcache.tags
tgts_per_mshr=20
two_queue=false
write_buffers=8
cpu_side=system.cpu0.dcache_port
mem_side=system.toL2Bus.slave[1]

[system.cpu0.dcache.tags]
type=LRU
assoc=4
block_size=64
clk_domain=system.cpu_clk_domain
eventq_index=0
hit_latency=2
sequential_access=false
size=32768

[system.cpu0.dtb]
type=AlphaTLB
eventq_index=0
size=64

[system.cpu0.icache]
type=BaseCache
children=tags
addr_ranges=0:18446744073709551615
assoc=1
clk_domain=system.cpu_clk_domain
eventq_index=0
forward_snoops=true
hit_latency=2
is_top_level=true
max_miss_count=0
mshrs=4
prefetch_on_access=false
prefetcher=Null
response_latency=2
sequential_access=false
size=32768
system=system
tags=system.cpu0.icache.tags
tgts_per_mshr=20
two_queue=false
write_buffers=8
cpu_side=system.cpu0.icache_port
mem_side=system.toL2Bus.slave[0]

[system.cpu0.icache.tags]
type=LRU
assoc=1
block_size=64
clk_domain=system.cpu_clk_domain
eventq_index=0
hit_latency=2
sequential_access=false
size=32768

[system.cpu0.interrupts]
type=AlphaInterrupts
eventq_index=0

[system.cpu0.isa]
type=AlphaISA
eventq_index=0
system=system

[system.cpu0.itb]
type=AlphaTLB
eventq_index=0
size=48

[system.cpu0.tracer]
type=ExeTracer
eventq_index=0

[system.cpu1]
type=AtomicSimpleCPU
children=dcache dtb icache interrupts isa itb tracer
checker=Null
clk_domain=system.cpu_clk_domain
cpu_id=1
do_checkpoint_insts=true
do_quiesce=true
do_statistics_insts=true
dtb=system.cpu1.dtb
eventq_index=0
fastmem=false
function_trace=false
function_trace_start=0
interrupts=system.cpu1.interrupts
isa=system.cpu1.isa
itb=system.cpu1.itb
max_insts_all_threads=0
max_insts_any_thread=0
max_loads_all_threads=0
max_loads_any_thread=0
numThreads=1
profile=0
progress_interval=0
simpoint_interval=100000000
simpoint_profile=false
simpoint_profile_file=simpoint.bb.gz
simpoint_start_insts=
simulate_data_stalls=false
simulate_inst_stalls=false
switched_out=false
system=system
tracer=system.cpu1.tracer
width=1
workload=
dcache_port=system.cpu1.dcache.cpu_side
icache_port=system.cpu1.icache.cpu_side

[system.cpu1.dcache]
type=BaseCache
children=tags
addr_ranges=0:18446744073709551615
assoc=4
clk_domain=system.cpu_clk_domain
eventq_index=0
forward_snoops=true
hit_latency=2
is_top_level=true
max_miss_count=0
mshrs=4
prefetch_on_access=false
prefetcher=Null
response_latency=2
sequential_access=false
size=32768
system=system
tags=system.cpu1.dcache.tags
tgts_per_mshr=20
two_queue=false
write_buffers=8
cpu_side=system.cpu1.dcache_port
mem_side=system.toL2Bus.slave[3]

[system.cpu1.dcache.tags]
type=LRU
assoc=4
block_size=64
clk_domain=system.cpu_clk_domain
eventq_index=0
hit_latency=2
sequential_access=false
size=32768

[system.cpu1.dtb]
type=AlphaTLB
eventq_index=0
size=64

[system.cpu1.icache]
type=BaseCache
children=tags
addr_ranges=0:18446744073709551615
assoc=1
clk_domain=system.cpu_clk_domain
eventq_index=0
forward_snoops=true
hit_latency=2
is_top_level=true
max_miss_count=0
mshrs=4
prefetch_on_access=false
prefetcher=Null
response_latency=2
sequential_access=false
size=32768
system=system
tags=system.cpu1.icache.tags
tgts_per_mshr=20
two_queue=false
write_buffers=8
cpu_side=system.cpu1.icache_port
mem_side=system.toL2Bus.slave[2]

[system.cpu1.icache.tags]
type=LRU
assoc=1
block_size=64
clk_domain=system.cpu_clk_domain
eventq_index=0
hit_latency=2
sequential_access=false
size=32768

[system.cpu1.interrupts]
type=AlphaInterrupts
eventq_index=0

[system.cpu1.isa]
type=AlphaISA
eventq_index=0
system=system

[system.cpu1.itb]
type=AlphaTLB
eventq_index=0
size=48

[system.cpu1.tracer]
type=ExeTracer
eventq_index=0

[system.cpu_clk_domain]
type=SrcClockDomain
clock=500
eventq_index=0
voltage_domain=system.voltage_domain

[system.disk0]
type=IdeDisk
children=image
delay=1000000
driveID=master
eventq_index=0
image=system.disk0.image

[system.disk0.image]
type=CowDiskImage
children=child
child=system.disk0.image.child
eventq_index=0
image_file=
read_only=false
table_size=65536

[system.disk0.image.child]
type=RawDiskImage
eventq_index=0
image_file=/dist/disks/linux-latest.img
read_only=true

[system.disk2]
type=IdeDisk
children=image
delay=1000000
driveID=master
eventq_index=0
image=system.disk2.image

[system.disk2.image]
type=CowDiskImage
children=child
child=system.disk2.image.child
eventq_index=0
image_file=
read_only=false
table_size=65536

[system.disk2.image.child]
type=RawDiskImage
eventq_index=0
image_file=/dist/disks/linux-bigswap2.img
read_only=true

[system.intrctrl]
type=IntrControl
eventq_index=0
sys=system

[system.iobus]
type=NoncoherentBus
clk_domain=system.clk_domain
eventq_index=0
header_cycles=1
use_default_range=true
width=8
default=system.tsunami.pciconfig.pio
master=system.tsunami.cchip.pio system.tsunami.pchip.pio system.tsunami.fake_sm_chip.pio system.tsunami.fake_uart1.pio system.tsunami.fake_uart2.pio system.tsunami.fake_uart3.pio system.tsunami.fake_uart4.pio system.tsunami.fake_ppc.pio system.tsunami.fake_OROM.pio system.tsunami.fake_pnp_addr.pio system.tsunami.fake_pnp_write.pio system.tsunami.fake_pnp_read0.pio system.tsunami.fake_pnp_read1.pio system.tsunami.fake_pnp_read2.pio system.tsunami.fake_pnp_read3.pio system.tsunami.fake_pnp_read4.pio system.tsunami.fake_pnp_read5.pio system.tsunami.fake_pnp_read6.pio system.tsunami.fake_pnp_read7.pio system.tsunami.fake_ata0.pio system.tsunami.fake_ata1.pio system.tsunami.fb.pio system.tsunami.io.pio system.tsunami.uart.pio system.tsunami.backdoor.pio system.tsunami.ide.pio system.tsunami.ide.config system.tsunami.ethernet.pio system.tsunami.ethernet.config system.iocache.cpu_side
slave=system.bridge.master system.tsunami.ide.dma system.tsunami.ethernet.dma

[system.iocache]
type=BaseCache
children=tags
addr_ranges=0:134217727
assoc=8
clk_domain=system.clk_domain
eventq_index=0
forward_snoops=false
hit_latency=50
is_top_level=true
max_miss_count=0
mshrs=20
prefetch_on_access=false
prefetcher=Null
response_latency=50
sequential_access=false
size=1024
system=system
tags=system.iocache.tags
tgts_per_mshr=12
two_queue=false
write_buffers=8
cpu_side=system.iobus.master[29]
mem_side=system.membus.slave[2]

[system.iocache.tags]
type=LRU
assoc=8
block_size=64
clk_domain=system.clk_domain
eventq_index=0
hit_latency=50
sequential_access=false
size=1024

[system.l2c]
type=BaseCache
children=tags
addr_ranges=0:18446744073709551615
assoc=8
clk_domain=system.cpu_clk_domain
eventq_index=0
forward_snoops=true
hit_latency=20
is_top_level=false
max_miss_count=0
mshrs=20
prefetch_on_access=false
prefetcher=Null
response_latency=20
sequential_access=false
size=4194304
system=system
tags=system.l2c.tags
tgts_per_mshr=12
two_queue=false
write_buffers=8
cpu_side=system.toL2Bus.master[0]
mem_side=system.membus.slave[1]

[system.l2c.tags]
type=LRU
assoc=8
block_size=64
clk_domain=system.cpu_clk_domain
eventq_index=0
hit_latency=20
sequential_access=false
size=4194304

[system.membus]
type=CoherentBus
children=badaddr_responder
clk_domain=system.clk_domain
eventq_index=0
header_cycles=1
system=system
use_default_range=false
width=8
default=system.membus.badaddr_responder.pio
master=system.bridge.slave system.physmem.port
slave=system.system_port system.l2c.mem_side system.iocache.mem_side

[system.membus.badaddr_responder]
type=IsaFake
clk_domain=system.clk_domain
eventq_index=0
fake_mem=false
pio_addr=0
pio_latency=100000
pio_size=8
ret_bad_addr=true
ret_data16=65535
ret_data32=4294967295
ret_data64=18446744073709551615
ret_data8=255
system=system
update_data=false
warn_access=
pio=system.membus.default

[system.physmem]
type=SimpleMemory
bandwidth=73.000000
clk_domain=system.clk_domain
conf_table_reported=true
eventq_index=0
in_addr_map=true
latency=30000
latency_var=0
null=false
range=0:134217727
port=system.membus.master[1]

[system.simple_disk]
type=SimpleDisk
children=disk
disk=system.simple_disk.disk
eventq_index=0
system=system

[system.simple_disk.disk]
type=RawDiskImage
eventq_index=0
image_file=/dist/disks/linux-latest.img
read_only=true

[system.terminal]
type=Terminal
eventq_index=0
intr_control=system.intrctrl
number=0
output=true
port=3456

[system.toL2Bus]
type=CoherentBus
clk_domain=system.cpu_clk_domain
eventq_index=0
header_cycles=1
system=system
use_default_range=false
width=8
master=system.l2c.cpu_side
slave=system.cpu0.icache.mem_side system.cpu0.dcache.mem_side system.cpu1.icache.mem_side system.cpu1.dcache.mem_side

[system.tsunami]
type=Tsunami
children=backdoor cchip ethernet fake_OROM fake_ata0 fake_ata1 fake_pnp_addr fake_pnp_read0 fake_pnp_read1 fake_pnp_read2 fake_pnp_read3 fake_pnp_read4 fake_pnp_read5 fake_pnp_read6 fake_pnp_read7 fake_pnp_write fake_ppc fake_sm_chip fake_uart1 fake_uart2 fake_uart3 fake_uart4 fb ide io pchip pciconfig uart
eventq_index=0
intrctrl=system.intrctrl
system=system

[system.tsunami.backdoor]
type=AlphaBackdoor
clk_domain=system.clk_domain
cpu=system.cpu0
disk=system.simple_disk
eventq_index=0
pio_addr=8804682956800
pio_latency=100000
platform=system.tsunami
system=system
terminal=system.terminal
pio=system.iobus.master[24]

[system.tsunami.cchip]
type=TsunamiCChip
clk_domain=system.clk_domain
eventq_index=0
pio_addr=8803072344064
pio_latency=100000
system=system
tsunami=system.tsunami
pio=system.iobus.master[0]

[system.tsunami.ethernet]
type=NSGigE
BAR0=1
BAR0LegacyIO=false
BAR0Size=256
BAR1=0
BAR1LegacyIO=false
BAR1Size=4096
BAR2=0
BAR2LegacyIO=false
BAR2Size=0
BAR3=0
BAR3LegacyIO=false
BAR3Size=0
BAR4=0
BAR4LegacyIO=false
BAR4Size=0
BAR5=0
BAR5LegacyIO=false
BAR5Size=0
BIST=0
CacheLineSize=0
CapabilityPtr=0
CardbusCIS=0
ClassCode=2
Command=0
DeviceID=34
ExpansionROM=0
HeaderType=0
InterruptLine=30
InterruptPin=1
LatencyTimer=0
MSICAPBaseOffset=0
MSICAPCapId=0
MSICAPMaskBits=0
MSICAPMsgAddr=0
MSICAPMsgCtrl=0
MSICAPMsgData=0
MSICAPMsgUpperAddr=0
MSICAPNextCapability=0
MSICAPPendingBits=0
MSIXCAPBaseOffset=0
MSIXCAPCapId=0
MSIXCAPNextCapability=0
MSIXMsgCtrl=0
MSIXPbaOffset=0
MSIXTableOffset=0
MaximumLatency=52
MinimumGrant=176
PMCAPBaseOffset=0
PMCAPCapId=0
PMCAPCapabilities=0
PMCAPCtrlStatus=0
PMCAPNextCapability=0
PXCAPBaseOffset=0
PXCAPCapId=0
PXCAPCapabilities=0
PXCAPDevCap2=0
PXCAPDevCapabilities=0
PXCAPDevCtrl=0
PXCAPDevCtrl2=0
PXCAPDevStatus=0
PXCAPLinkCap=0
PXCAPLinkCtrl=0
PXCAPLinkStatus=0
PXCAPNextCapability=0
ProgIF=0
Revision=0
Status=656
SubClassCode=0
SubsystemID=0
SubsystemVendorID=0
VendorID=4107
clk_domain=system.clk_domain
config_latency=20000
dma_data_free=false
dma_desc_free=false
dma_no_allocate=true
dma_read_delay=0
dma_read_factor=0
dma_write_delay=0
dma_write_factor=0
eventq_index=0
hardware_address=00:90:00:00:00:01
intr_delay=10000000
pci_bus=0
pci_dev=1
pci_func=0
pio_latency=30000
platform=system.tsunami
rss=false
rx_delay=1000000
rx_fifo_size=524288
rx_filter=true
rx_thread=false
system=system
tx_delay=1000000
tx_fifo_size=524288
tx_thread=false
config=system.iobus.master[28]
dma=system.iobus.slave[2]
pio=system.iobus.master[27]

[system.tsunami.fake_OROM]
type=IsaFake
clk_domain=system.clk_domain
eventq_index=0
fake_mem=false
pio_addr=8796093677568
pio_latency=100000
pio_size=393216
ret_bad_addr=false
ret_data16=65535
ret_data32=4294967295
ret_data64=18446744073709551615
ret_data8=255
system=system
update_data=false
warn_access=
pio=system.iobus.master[8]

[system.tsunami.fake_ata0]
type=IsaFake
clk_domain=system.clk_domain
eventq_index=0
fake_mem=false
pio_addr=8804615848432
pio_latency=100000
pio_size=8
ret_bad_addr=false
ret_data16=65535
ret_data32=4294967295
ret_data64=18446744073709551615
ret_data8=255
system=system
update_data=false
warn_access=
pio=system.iobus.master[19]

[system.tsunami.fake_ata1]
type=IsaFake
clk_domain=system.clk_domain
eventq_index=0
fake_mem=false
pio_addr=8804615848304
pio_latency=100000
pio_size=8
ret_bad_addr=false
ret_data16=65535
ret_data32=4294967295
ret_data64=18446744073709551615
ret_data8=255
system=system
update_data=false
warn_access=
pio=system.iobus.master[20]

[system.tsunami.fake_pnp_addr]
type=IsaFake
clk_domain=system.clk_domain
eventq_index=0
fake_mem=false
pio_addr=8804615848569
pio_latency=100000
pio_size=8
ret_bad_addr=false
ret_data16=65535
ret_data32=4294967295
ret_data64=18446744073709551615
ret_data8=255
system=system
update_data=false
warn_access=
pio=system.iobus.master[9]

[system.tsunami.fake_pnp_read0]
type=IsaFake
clk_domain=system.clk_domain
eventq_index=0
fake_mem=false
pio_addr=8804615848451
pio_latency=100000
pio_size=8
ret_bad_addr=false
ret_data16=65535
ret_data32=4294967295
ret_data64=18446744073709551615
ret_data8=255
system=system
update_data=false
warn_access=
pio=system.iobus.master[11]

[system.tsunami.fake_pnp_read1]
type=IsaFake
clk_domain=system.clk_domain
eventq_index=0
fake_mem=false
pio_addr=8804615848515
pio_latency=100000
pio_size=8
ret_bad_addr=false
ret_data16=65535
ret_data32=4294967295
ret_data64=18446744073709551615
ret_data8=255
system=system
update_data=false
warn_access=
pio=system.iobus.master[12]

[system.tsunami.fake_pnp_read2]
type=IsaFake
clk_domain=system.clk_domain
eventq_index=0
fake_mem=false
pio_addr=8804615848579
pio_latency=100000
pio_size=8
ret_bad_addr=false
ret_data16=65535
ret_data32=4294967295
ret_data64=18446744073709551615
ret_data8=255
system=system
update_data=false
warn_access=
pio=system.iobus.master[13]

[system.tsunami.fake_pnp_read3]
type=IsaFake
clk_domain=system.clk_domain
eventq_index=0
fake_mem=false
pio_addr=8804615848643
pio_latency=100000
pio_size=8
ret_bad_addr=false
ret_data16=65535
ret_data32=4294967295
ret_data64=18446744073709551615
ret_data8=255
system=system
update_data=false
warn_access=
pio=system.iobus.master[14]

[system.tsunami.fake_pnp_read4]
type=IsaFake
clk_domain=system.clk_domain
eventq_index=0
fake_mem=false
pio_addr=8804615848707
pio_latency=100000
pio_size=8
ret_bad_addr=false
ret_data16=65535
ret_data32=4294967295
ret_data64=18446744073709551615
ret_data8=255
system=system
update_data=false
warn_access=
pio=system.iobus.master[15]

[system.tsunami.fake_pnp_read5]
type=IsaFake
clk_domain=system.clk_domain
eventq_index=0
fake_mem=false
pio_addr=8804615848771
pio_latency=100000
pio_size=8
ret_bad_addr=false
ret_data16=65535
ret_data32=4294967295
ret_data64=18446744073709551615
ret_data8=255
system=system
update_data=false
warn_access=
pio=system.iobus.master[16]

[system.tsunami.fake_pnp_read6]
type=IsaFake
clk_domain=system.clk_domain
eventq_index=0
fake_mem=false
pio_addr=8804615848835
pio_latency=100000
pio_size=8
ret_bad_addr=false
ret_data16=65535
ret_data32=4294967295
ret_data64=18446744073709551615
ret_data8=255
system=system
update_data=false
warn_access=
pio=system.iobus.master[17]

[system.tsunami.fake_pnp_read7]
type=IsaFake
clk_domain=system.clk_domain
eventq_index=0
fake_mem=false
pio_addr=8804615848899
pio_latency=100000
pio_size=8
ret_bad_addr=false
ret_data16=65535
ret_data32=4294967295
ret_data64=18446744073709551615
ret_data8=255
system=system
update_data=false
warn_access=
pio=system.iobus.master[18]

[system.tsunami.fake_pnp_write]
type=IsaFake
clk_domain=system.clk_domain
eventq_index=0
fake_mem=false
pio_addr=8804615850617
pio_latency=100000
pio_size=8
ret_bad_addr=false
ret_data16=65535
ret_data32=4294967295
ret_data64=18446744073709551615
ret_data8=255
system=system
update_data=false
warn_access=
pio=system.iobus.master[10]

[system.tsunami.fake_ppc]
type=IsaFake
clk_domain=system.clk_domain
eventq_index=0
fake_mem=false
pio_addr=8804615848891
pio_latency=100000
pio_size=8
ret_bad_addr=false
ret_data16=65535
ret_data32=4294967295
ret_data64=18446744073709551615
ret_data8=255
system=system
update_data=false
warn_access=
pio=system.iobus.master[7]

[system.tsunami.fake_sm_chip]
type=IsaFake
clk_domain=system.clk_domain
eventq_index=0
fake_mem=false
pio_addr=8804615848816
pio_latency=100000
pio_size=8
ret_bad_addr=false
ret_data16=65535
ret_data32=4294967295
ret_data64=18446744073709551615
ret_data8=255
system=system
update_data=false
warn_access=
pio=system.iobus.master[2]

[system.tsunami.fake_uart1]
type=IsaFake
clk_domain=system.clk_domain
eventq_index=0
fake_mem=false
pio_addr=8804615848696
pio_latency=100000
pio_size=8
ret_bad_addr=false
ret_data16=65535
ret_data32=4294967295
ret_data64=18446744073709551615
ret_data8=255
system=system
update_data=false
warn_access=
pio=system.iobus.master[3]

[system.tsunami.fake_uart2]
type=IsaFake
clk_domain=system.clk_domain
eventq_index=0
fake_mem=false
pio_addr=8804615848936
pio_latency=100000
pio_size=8
ret_bad_addr=false
ret_data16=65535
ret_data32=4294967295
ret_data64=18446744073709551615
ret_data8=255
system=system
update_data=false
warn_access=
pio=system.iobus.master[4]

[system.tsunami.fake_uart3]
type=IsaFake
clk_domain=system.clk_domain
eventq_index=0
fake_mem=false
pio_addr=8804615848680
pio_latency=100000
pio_size=8
ret_bad_addr=false
ret_data16=65535
ret_data32=4294967295
ret_data64=18446744073709551615
ret_data8=255
system=system
update_data=false
warn_access=
pio=system.iobus.master[5]

[system.tsunami.fake_uart4]
type=IsaFake
clk_domain=system.clk_domain
eventq_index=0
fake_mem=false
pio_addr=8804615848944
pio_latency=100000
pio_size=8
ret_bad_addr=false
ret_data16=65535
ret_data32=4294967295
ret_data64=18446744073709551615
ret_data8=255
system=system
update_data=false
warn_access=
pio=system.iobus.master[6]

[system.tsunami.fb]
type=BadDevice
clk_domain=system.clk_domain
devicename=FrameBuffer
eventq_index=0
pio_addr=8804615848912
pio_latency=100000
system=system
pio=system.iobus.master[21]

[system.tsunami.ide]
type=IdeController
BAR0=1
BAR0LegacyIO=false
BAR0Size=8
BAR1=1
BAR1LegacyIO=false
BAR1Size=4
BAR2=1
BAR2LegacyIO=false
BAR2Size=8
BAR3=1
BAR3LegacyIO=false
BAR3Size=4
BAR4=1
BAR4LegacyIO=false
BAR4Size=16
BAR5=1
BAR5LegacyIO=false
BAR5Size=0
BIST=0
CacheLineSize=0
CapabilityPtr=0
CardbusCIS=0
ClassCode=1
Command=0
DeviceID=28945
ExpansionROM=0
HeaderType=0
InterruptLine=31
InterruptPin=1
LatencyTimer=0
MSICAPBaseOffset=0
MSICAPCapId=0
MSICAPMaskBits=0
MSICAPMsgAddr=0
MSICAPMsgCtrl=0
MSICAPMsgData=0
MSICAPMsgUpperAddr=0
MSICAPNextCapability=0
MSICAPPendingBits=0
MSIXCAPBaseOffset=0
MSIXCAPCapId=0
MSIXCAPNextCapability=0
MSIXMsgCtrl=0
MSIXPbaOffset=0
MSIXTableOffset=0
MaximumLatency=0
MinimumGrant=0
PMCAPBaseOffset=0
PMCAPCapId=0
PMCAPCapabilities=0
PMCAPCtrlStatus=0
PMCAPNextCapability=0
PXCAPBaseOffset=0
PXCAPCapId=0
PXCAPCapabilities=0
PXCAPDevCap2=0
PXCAPDevCapabilities=0
PXCAPDevCtrl=0
PXCAPDevCtrl2=0
PXCAPDevStatus=0
PXCAPLinkCap=0
PXCAPLinkCtrl=0
PXCAPLinkStatus=0
PXCAPNextCapability=0
ProgIF=133
Revision=0
Status=640
SubClassCode=1
SubsystemID=0
SubsystemVendorID=0
VendorID=32902
clk_domain=system.clk_domain
config_latency=20000
ctrl_offset=0
disks=system.disk0 system.disk2
eventq_index=0
io_shift=0
pci_bus=0
pci_dev=0
pci_func=0
pio_latency=30000
platform=system.tsunami
system=system
config=system.iobus.master[26]
dma=system.iobus.slave[1]
pio=system.iobus.master[25]

[system.tsunami.io]
type=TsunamiIO
clk_domain=system.clk_domain
eventq_index=0
frequency=976562500
pio_addr=8804615847936
pio_latency=100000
system=system
time=Thu Jan  1 00:00:00 2009
tsunami=system.tsunami
year_is_bcd=false
pio=system.iobus.master[22]

[system.tsunami.pchip]
type=TsunamiPChip
clk_domain=system.clk_domain
eventq_index=0
pio_addr=8802535473152
pio_latency=100000
system=system
tsunami=system.tsunami
pio=system.iobus.master[1]

[system.tsunami.pciconfig]
type=PciConfigAll
bus=0
clk_domain=system.clk_domain
eventq_index=0
pio_addr=0
pio_latency=30000
platform=system.tsunami
size=16777216
system=system
pio=system.iobus.default

[system.tsunami.uart]
type=Uart8250
clk_domain=system.clk_domain
eventq_index=0
pio_addr=8804615848952
pio_latency=100000
platform=system.tsunami
system=system
terminal=system.terminal
pio=system.iobus.master[23]

[system.voltage_domain]
type=VoltageDomain
eventq_index=0
voltage=1.000000

