[root]
type=Root
children=system
eventq_index=0
full_system=false
sim_quantum=0
time_sync_enable=false
time_sync_period=100000000
time_sync_spin_threshold=100000

[system]
type=System
children=clk_domain cpu0 cpu1 cpu2 cpu3 cpu4 cpu5 cpu6 cpu7 cpu_clk_domain dvfs_handler mem_ctrls ruby sys_port_proxy voltage_domain
boot_osflags=a
cache_line_size=64
clk_domain=system.clk_domain
eventq_index=0
exit_on_work_items=false
init_param=0
kernel=
kernel_addr_check=true
load_addr_mask=1099511627775
load_offset=0
mem_mode=timing
mem_ranges=0:268435455
memories=system.mem_ctrls
mmap_using_noreserve=false
multi_thread=false
num_work_ids=16
readfile=
symbolfile=
thermal_components=
thermal_model=Null
work_begin_ckpt_count=0
work_begin_cpu_id_exit=-1
work_begin_exit_count=0
work_cpus_ckpt_count=0
work_end_ckpt_count=0
work_end_exit_count=0
work_item_id=-1
system_port=system.sys_port_proxy.slave[0]

[system.clk_domain]
type=SrcClockDomain
clock=1
domain_id=-1
eventq_index=0
init_perf_level=0
voltage_domain=system.voltage_domain

[system.cpu0]
type=MemTest
clk_domain=system.cpu_clk_domain
eventq_index=0
interval=1
max_loads=100000
percent_functional=50
percent_reads=65
percent_uncacheable=0
progress_check=5000000
progress_interval=10000
size=65536
suppress_func_warnings=true
system=system
port=system.ruby.l1_cntrl0.sequencer.slave[0]

[system.cpu1]
type=MemTest
clk_domain=system.cpu_clk_domain
eventq_index=0
interval=1
max_loads=100000
percent_functional=50
percent_reads=65
percent_uncacheable=0
progress_check=5000000
progress_interval=10000
size=65536
suppress_func_warnings=true
system=system
port=system.ruby.l1_cntrl1.sequencer.slave[0]

[system.cpu2]
type=MemTest
clk_domain=system.cpu_clk_domain
eventq_index=0
interval=1
max_loads=100000
percent_functional=50
percent_reads=65
percent_uncacheable=0
progress_check=5000000
progress_interval=10000
size=65536
suppress_func_warnings=true
system=system
port=system.ruby.l1_cntrl2.sequencer.slave[0]

[system.cpu3]
type=MemTest
clk_domain=system.cpu_clk_domain
eventq_index=0
interval=1
max_loads=100000
percent_functional=50
percent_reads=65
percent_uncacheable=0
progress_check=5000000
progress_interval=10000
size=65536
suppress_func_warnings=true
system=system
port=system.ruby.l1_cntrl3.sequencer.slave[0]

[system.cpu4]
type=MemTest
clk_domain=system.cpu_clk_domain
eventq_index=0
interval=1
max_loads=100000
percent_functional=50
percent_reads=65
percent_uncacheable=0
progress_check=5000000
progress_interval=10000
size=65536
suppress_func_warnings=true
system=system
port=system.ruby.l1_cntrl4.sequencer.slave[0]

[system.cpu5]
type=MemTest
clk_domain=system.cpu_clk_domain
eventq_index=0
interval=1
max_loads=100000
percent_functional=50
percent_reads=65
percent_uncacheable=0
progress_check=5000000
progress_interval=10000
size=65536
suppress_func_warnings=true
system=system
port=system.ruby.l1_cntrl5.sequencer.slave[0]

[system.cpu6]
type=MemTest
clk_domain=system.cpu_clk_domain
eventq_index=0
interval=1
max_loads=100000
percent_functional=50
percent_reads=65
percent_uncacheable=0
progress_check=5000000
progress_interval=10000
size=65536
suppress_func_warnings=true
system=system
port=system.ruby.l1_cntrl6.sequencer.slave[0]

[system.cpu7]
type=MemTest
clk_domain=system.cpu_clk_domain
eventq_index=0
interval=1
max_loads=100000
percent_functional=50
percent_reads=65
percent_uncacheable=0
progress_check=5000000
progress_interval=10000
size=65536
suppress_func_warnings=true
system=system
port=system.ruby.l1_cntrl7.sequencer.slave[0]

[system.cpu_clk_domain]
type=SrcClockDomain
clock=1
domain_id=-1
eventq_index=0
init_perf_level=0
voltage_domain=system.voltage_domain

[system.dvfs_handler]
type=DVFSHandler
domains=
enable=false
eventq_index=0
sys_clk_domain=system.clk_domain
transition_latency=100000

[system.mem_ctrls]
type=DRAMCtrl
IDD0=0.075000
IDD02=0.000000
IDD2N=0.050000
IDD2N2=0.000000
IDD2P0=0.000000
IDD2P02=0.000000
IDD2P1=0.000000
IDD2P12=0.000000
IDD3N=0.057000
IDD3N2=0.000000
IDD3P0=0.000000
IDD3P02=0.000000
IDD3P1=0.000000
IDD3P12=0.000000
IDD4R=0.187000
IDD4R2=0.000000
IDD4W=0.165000
IDD4W2=0.000000
IDD5=0.220000
IDD52=0.000000
IDD6=0.000000
IDD62=0.000000
VDD=1.500000
VDD2=0.000000
activation_limit=4
addr_mapping=RoRaBaCoCh
bank_groups_per_rank=0
banks_per_rank=8
burst_length=8
channels=1
clk_domain=system.clk_domain
conf_table_reported=true
device_bus_width=8
device_rowbuffer_size=1024
device_size=536870912
devices_per_rank=8
dll=true
eventq_index=0
in_addr_map=true
max_accesses_per_row=16
mem_sched_policy=frfcfs
min_writes_per_switch=16
null=false
page_policy=open_adaptive
range=0:268435455
ranks_per_channel=2
read_buffer_size=32
static_backend_latency=10
static_frontend_latency=10
tBURST=5
tCCD_L=0
tCK=1
tCL=14
tCS=3
tRAS=35
tRCD=14
tREFI=7800
tRFC=260
tRP=14
tRRD=6
tRRD_L=0
tRTP=8
tRTW=3
tWR=15
tWTR=8
tXAW=30
tXP=0
tXPDLL=0
tXS=0
tXSDLL=0
write_buffer_size=64
write_high_thresh_perc=85
write_low_thresh_perc=50
port=system.ruby.dir_cntrl0.memory

[system.ruby]
type=RubySystem
children=clk_domain dir_cntrl0 l1_cntrl0 l1_cntrl1 l1_cntrl2 l1_cntrl3 l1_cntrl4 l1_cntrl5 l1_cntrl6 l1_cntrl7 memctrl_clk_domain network
access_backing_store=false
all_instructions=false
block_size_bytes=64
clk_domain=system.ruby.clk_domain
eventq_index=0
hot_lines=false
memory_size_bits=48
num_of_sequencers=8
number_of_virtual_networks=6
phys_mem=Null
randomization=false

[system.ruby.clk_domain]
type=SrcClockDomain
clock=1
domain_id=-1
eventq_index=0
init_perf_level=0
voltage_domain=system.voltage_domain

[system.ruby.dir_cntrl0]
type=Directory_Controller
children=directory dmaRequestToDir dmaResponseFromDir forwardFromDir probeFilter requestToDir responseFromDir responseFromMemory responseToDir triggerQueue unblockToDir
buffer_size=0
clk_domain=system.ruby.clk_domain
cluster_id=0
directory=system.ruby.dir_cntrl0.directory
dmaRequestToDir=system.ruby.dir_cntrl0.dmaRequestToDir
dmaResponseFromDir=system.ruby.dir_cntrl0.dmaResponseFromDir
eventq_index=0
forwardFromDir=system.ruby.dir_cntrl0.forwardFromDir
from_memory_controller_latency=2
full_bit_dir_enabled=false
number_of_TBEs=256
probeFilter=system.ruby.dir_cntrl0.probeFilter
probe_filter_enabled=false
recycle_latency=10
requestToDir=system.ruby.dir_cntrl0.requestToDir
responseFromDir=system.ruby.dir_cntrl0.responseFromDir
responseFromMemory=system.ruby.dir_cntrl0.responseFromMemory
responseToDir=system.ruby.dir_cntrl0.responseToDir
ruby_system=system.ruby
system=system
to_memory_controller_latency=1
transitions_per_cycle=32
triggerQueue=system.ruby.dir_cntrl0.triggerQueue
unblockToDir=system.ruby.dir_cntrl0.unblockToDir
version=0
memory=system.mem_ctrls.port

[system.ruby.dir_cntrl0.directory]
type=RubyDirectoryMemory
eventq_index=0
numa_high_bit=5
size=268435456
version=0

[system.ruby.dir_cntrl0.dmaRequestToDir]
type=MessageBuffer
buffer_size=0
eventq_index=0
ordered=true
randomization=false
slave=system.ruby.network.master[19]

[system.ruby.dir_cntrl0.dmaResponseFromDir]
type=MessageBuffer
buffer_size=0
eventq_index=0
ordered=true
randomization=false
master=system.ruby.network.slave[26]

[system.ruby.dir_cntrl0.forwardFromDir]
type=MessageBuffer
buffer_size=0
eventq_index=0
ordered=false
randomization=false
master=system.ruby.network.slave[24]

[system.ruby.dir_cntrl0.probeFilter]
type=RubyCache
children=replacement_policy
assoc=4
block_size=0
dataAccessLatency=1
dataArrayBanks=1
eventq_index=0
is_icache=false
replacement_policy=system.ruby.dir_cntrl0.probeFilter.replacement_policy
resourceStalls=false
ruby_system=system.ruby
size=1024
start_index_bit=6
tagAccessLatency=1
tagArrayBanks=1

[system.ruby.dir_cntrl0.probeFilter.replacement_policy]
type=PseudoLRUReplacementPolicy
assoc=4
block_size=64
eventq_index=0
size=1024

[system.ruby.dir_cntrl0.requestToDir]
type=MessageBuffer
buffer_size=0
eventq_index=0
ordered=false
randomization=false
slave=system.ruby.network.master[18]

[system.ruby.dir_cntrl0.responseFromDir]
type=MessageBuffer
buffer_size=0
eventq_index=0
ordered=false
randomization=false
master=system.ruby.network.slave[25]

[system.ruby.dir_cntrl0.responseFromMemory]
type=MessageBuffer
buffer_size=0
eventq_index=0
ordered=false
randomization=false

[system.ruby.dir_cntrl0.responseToDir]
type=MessageBuffer
buffer_size=0
eventq_index=0
ordered=false
randomization=false
slave=system.ruby.network.master[17]

[system.ruby.dir_cntrl0.triggerQueue]
type=MessageBuffer
buffer_size=0
eventq_index=0
ordered=true
randomization=false

[system.ruby.dir_cntrl0.unblockToDir]
type=MessageBuffer
buffer_size=0
eventq_index=0
ordered=false
randomization=false
slave=system.ruby.network.master[16]

[system.ruby.l1_cntrl0]
type=L1Cache_Controller
children=L1Dcache L1Icache L2cache forwardToCache mandatoryQueue requestFromCache responseFromCache responseToCache sequencer triggerQueue unblockFromCache
L1Dcache=system.ruby.l1_cntrl0.L1Dcache
L1Icache=system.ruby.l1_cntrl0.L1Icache
L2cache=system.ruby.l1_cntrl0.L2cache
buffer_size=0
cache_response_latency=10
clk_domain=system.cpu_clk_domain
cluster_id=0
eventq_index=0
forwardToCache=system.ruby.l1_cntrl0.forwardToCache
issue_latency=2
l2_cache_hit_latency=10
mandatoryQueue=system.ruby.l1_cntrl0.mandatoryQueue
no_mig_atomic=true
number_of_TBEs=256
recycle_latency=10
requestFromCache=system.ruby.l1_cntrl0.requestFromCache
responseFromCache=system.ruby.l1_cntrl0.responseFromCache
responseToCache=system.ruby.l1_cntrl0.responseToCache
ruby_system=system.ruby
send_evictions=false
sequencer=system.ruby.l1_cntrl0.sequencer
system=system
transitions_per_cycle=32
triggerQueue=system.ruby.l1_cntrl0.triggerQueue
unblockFromCache=system.ruby.l1_cntrl0.unblockFromCache
version=0

[system.ruby.l1_cntrl0.L1Dcache]
type=RubyCache
children=replacement_policy
assoc=2
block_size=0
dataAccessLatency=1
dataArrayBanks=1
eventq_index=0
is_icache=false
replacement_policy=system.ruby.l1_cntrl0.L1Dcache.replacement_policy
resourceStalls=false
ruby_system=system.ruby
size=256
start_index_bit=6
tagAccessLatency=1
tagArrayBanks=1

[system.ruby.l1_cntrl0.L1Dcache.replacement_policy]
type=PseudoLRUReplacementPolicy
assoc=2
block_size=64
eventq_index=0
size=256

[system.ruby.l1_cntrl0.L1Icache]
type=RubyCache
children=replacement_policy
assoc=2
block_size=0
dataAccessLatency=1
dataArrayBanks=1
eventq_index=0
is_icache=true
replacement_policy=system.ruby.l1_cntrl0.L1Icache.replacement_policy
resourceStalls=false
ruby_system=system.ruby
size=256
start_index_bit=6
tagAccessLatency=1
tagArrayBanks=1

[system.ruby.l1_cntrl0.L1Icache.replacement_policy]
type=PseudoLRUReplacementPolicy
assoc=2
block_size=64
eventq_index=0
size=256

[system.ruby.l1_cntrl0.L2cache]
type=RubyCache
children=replacement_policy
assoc=2
block_size=0
dataAccessLatency=1
dataArrayBanks=1
eventq_index=0
is_icache=false
replacement_policy=system.ruby.l1_cntrl0.L2cache.replacement_policy
resourceStalls=false
ruby_system=system.ruby
size=512
start_index_bit=6
tagAccessLatency=1
tagArrayBanks=1

[system.ruby.l1_cntrl0.L2cache.replacement_policy]
type=PseudoLRUReplacementPolicy
assoc=2
block_size=64
eventq_index=0
size=512

[system.ruby.l1_cntrl0.forwardToCache]
type=MessageBuffer
buffer_size=0
eventq_index=0
ordered=false
randomization=false
slave=system.ruby.network.master[0]

[system.ruby.l1_cntrl0.mandatoryQueue]
type=MessageBuffer
buffer_size=0
eventq_index=0
ordered=false
randomization=false

[system.ruby.l1_cntrl0.requestFromCache]
type=MessageBuffer
buffer_size=0
eventq_index=0
ordered=false
randomization=false
master=system.ruby.network.slave[0]

[system.ruby.l1_cntrl0.responseFromCache]
type=MessageBuffer
buffer_size=0
eventq_index=0
ordered=false
randomization=false
master=system.ruby.network.slave[1]

[system.ruby.l1_cntrl0.responseToCache]
type=MessageBuffer
buffer_size=0
eventq_index=0
ordered=false
randomization=false
slave=system.ruby.network.master[1]

[system.ruby.l1_cntrl0.sequencer]
type=RubySequencer
clk_domain=system.cpu_clk_domain
coreid=99
dcache=system.ruby.l1_cntrl0.L1Dcache
dcache_hit_latency=1
deadlock_threshold=1000000
eventq_index=0
icache=system.ruby.l1_cntrl0.L1Icache
icache_hit_latency=1
is_cpu_sequencer=true
max_outstanding_requests=16
no_retry_on_stall=false
ruby_system=system.ruby
support_data_reqs=true
support_inst_reqs=true
system=system
using_network_tester=false
using_ruby_tester=false
version=0
slave=system.cpu0.port

[system.ruby.l1_cntrl0.triggerQueue]
type=MessageBuffer
buffer_size=0
eventq_index=0
ordered=false
randomization=false

[system.ruby.l1_cntrl0.unblockFromCache]
type=MessageBuffer
buffer_size=0
eventq_index=0
ordered=false
randomization=false
master=system.ruby.network.slave[2]

[system.ruby.l1_cntrl1]
type=L1Cache_Controller
children=L1Dcache L1Icache L2cache forwardToCache mandatoryQueue requestFromCache responseFromCache responseToCache sequencer triggerQueue unblockFromCache
L1Dcache=system.ruby.l1_cntrl1.L1Dcache
L1Icache=system.ruby.l1_cntrl1.L1Icache
L2cache=system.ruby.l1_cntrl1.L2cache
buffer_size=0
cache_response_latency=10
clk_domain=system.cpu_clk_domain
cluster_id=0
eventq_index=0
forwardToCache=system.ruby.l1_cntrl1.forwardToCache
issue_latency=2
l2_cache_hit_latency=10
mandatoryQueue=system.ruby.l1_cntrl1.mandatoryQueue
no_mig_atomic=true
number_of_TBEs=256
recycle_latency=10
requestFromCache=system.ruby.l1_cntrl1.requestFromCache
responseFromCache=system.ruby.l1_cntrl1.responseFromCache
responseToCache=system.ruby.l1_cntrl1.responseToCache
ruby_system=system.ruby
send_evictions=false
sequencer=system.ruby.l1_cntrl1.sequencer
system=system
transitions_per_cycle=32
triggerQueue=system.ruby.l1_cntrl1.triggerQueue
unblockFromCache=system.ruby.l1_cntrl1.unblockFromCache
version=1

[system.ruby.l1_cntrl1.L1Dcache]
type=RubyCache
children=replacement_policy
assoc=2
block_size=0
dataAccessLatency=1
dataArrayBanks=1
eventq_index=0
is_icache=false
replacement_policy=system.ruby.l1_cntrl1.L1Dcache.replacement_policy
resourceStalls=false
ruby_system=system.ruby
size=256
start_index_bit=6
tagAccessLatency=1
tagArrayBanks=1

[system.ruby.l1_cntrl1.L1Dcache.replacement_policy]
type=PseudoLRUReplacementPolicy
assoc=2
block_size=64
eventq_index=0
size=256

[system.ruby.l1_cntrl1.L1Icache]
type=RubyCache
children=replacement_policy
assoc=2
block_size=0
dataAccessLatency=1
dataArrayBanks=1
eventq_index=0
is_icache=true
replacement_policy=system.ruby.l1_cntrl1.L1Icache.replacement_policy
resourceStalls=false
ruby_system=system.ruby
size=256
start_index_bit=6
tagAccessLatency=1
tagArrayBanks=1

[system.ruby.l1_cntrl1.L1Icache.replacement_policy]
type=PseudoLRUReplacementPolicy
assoc=2
block_size=64
eventq_index=0
size=256

[system.ruby.l1_cntrl1.L2cache]
type=RubyCache
children=replacement_policy
assoc=2
block_size=0
dataAccessLatency=1
dataArrayBanks=1
eventq_index=0
is_icache=false
replacement_policy=system.ruby.l1_cntrl1.L2cache.replacement_policy
resourceStalls=false
ruby_system=system.ruby
size=512
start_index_bit=6
tagAccessLatency=1
tagArrayBanks=1

[system.ruby.l1_cntrl1.L2cache.replacement_policy]
type=PseudoLRUReplacementPolicy
assoc=2
block_size=64
eventq_index=0
size=512

[system.ruby.l1_cntrl1.forwardToCache]
type=MessageBuffer
buffer_size=0
eventq_index=0
ordered=false
randomization=false
slave=system.ruby.network.master[2]

[system.ruby.l1_cntrl1.mandatoryQueue]
type=MessageBuffer
buffer_size=0
eventq_index=0
ordered=false
randomization=false

[system.ruby.l1_cntrl1.requestFromCache]
type=MessageBuffer
buffer_size=0
eventq_index=0
ordered=false
randomization=false
master=system.ruby.network.slave[3]

[system.ruby.l1_cntrl1.responseFromCache]
type=MessageBuffer
buffer_size=0
eventq_index=0
ordered=false
randomization=false
master=system.ruby.network.slave[4]

[system.ruby.l1_cntrl1.responseToCache]
type=MessageBuffer
buffer_size=0
eventq_index=0
ordered=false
randomization=false
slave=system.ruby.network.master[3]

[system.ruby.l1_cntrl1.sequencer]
type=RubySequencer
clk_domain=system.cpu_clk_domain
coreid=99
dcache=system.ruby.l1_cntrl1.L1Dcache
dcache_hit_latency=1
deadlock_threshold=1000000
eventq_index=0
icache=system.ruby.l1_cntrl1.L1Icache
icache_hit_latency=1
is_cpu_sequencer=true
max_outstanding_requests=16
no_retry_on_stall=false
ruby_system=system.ruby
support_data_reqs=true
support_inst_reqs=true
system=system
using_network_tester=false
using_ruby_tester=false
version=1
slave=system.cpu1.port

[system.ruby.l1_cntrl1.triggerQueue]
type=MessageBuffer
buffer_size=0
eventq_index=0
ordered=false
randomization=false

[system.ruby.l1_cntrl1.unblockFromCache]
type=MessageBuffer
buffer_size=0
eventq_index=0
ordered=false
randomization=false
master=system.ruby.network.slave[5]

[system.ruby.l1_cntrl2]
type=L1Cache_Controller
children=L1Dcache L1Icache L2cache forwardToCache mandatoryQueue requestFromCache responseFromCache responseToCache sequencer triggerQueue unblockFromCache
L1Dcache=system.ruby.l1_cntrl2.L1Dcache
L1Icache=system.ruby.l1_cntrl2.L1Icache
L2cache=system.ruby.l1_cntrl2.L2cache
buffer_size=0
cache_response_latency=10
clk_domain=system.cpu_clk_domain
cluster_id=0
eventq_index=0
forwardToCache=system.ruby.l1_cntrl2.forwardToCache
issue_latency=2
l2_cache_hit_latency=10
mandatoryQueue=system.ruby.l1_cntrl2.mandatoryQueue
no_mig_atomic=true
number_of_TBEs=256
recycle_latency=10
requestFromCache=system.ruby.l1_cntrl2.requestFromCache
responseFromCache=system.ruby.l1_cntrl2.responseFromCache
responseToCache=system.ruby.l1_cntrl2.responseToCache
ruby_system=system.ruby
send_evictions=false
sequencer=system.ruby.l1_cntrl2.sequencer
system=system
transitions_per_cycle=32
triggerQueue=system.ruby.l1_cntrl2.triggerQueue
unblockFromCache=system.ruby.l1_cntrl2.unblockFromCache
version=2

[system.ruby.l1_cntrl2.L1Dcache]
type=RubyCache
children=replacement_policy
assoc=2
block_size=0
dataAccessLatency=1
dataArrayBanks=1
eventq_index=0
is_icache=false
replacement_policy=system.ruby.l1_cntrl2.L1Dcache.replacement_policy
resourceStalls=false
ruby_system=system.ruby
size=256
start_index_bit=6
tagAccessLatency=1
tagArrayBanks=1

[system.ruby.l1_cntrl2.L1Dcache.replacement_policy]
type=PseudoLRUReplacementPolicy
assoc=2
block_size=64
eventq_index=0
size=256

[system.ruby.l1_cntrl2.L1Icache]
type=RubyCache
children=replacement_policy
assoc=2
block_size=0
dataAccessLatency=1
dataArrayBanks=1
eventq_index=0
is_icache=true
replacement_policy=system.ruby.l1_cntrl2.L1Icache.replacement_policy
resourceStalls=false
ruby_system=system.ruby
size=256
start_index_bit=6
tagAccessLatency=1
tagArrayBanks=1

[system.ruby.l1_cntrl2.L1Icache.replacement_policy]
type=PseudoLRUReplacementPolicy
assoc=2
block_size=64
eventq_index=0
size=256

[system.ruby.l1_cntrl2.L2cache]
type=RubyCache
children=replacement_policy
assoc=2
block_size=0
dataAccessLatency=1
dataArrayBanks=1
eventq_index=0
is_icache=false
replacement_policy=system.ruby.l1_cntrl2.L2cache.replacement_policy
resourceStalls=false
ruby_system=system.ruby
size=512
start_index_bit=6
tagAccessLatency=1
tagArrayBanks=1

[system.ruby.l1_cntrl2.L2cache.replacement_policy]
type=PseudoLRUReplacementPolicy
assoc=2
block_size=64
eventq_index=0
size=512

[system.ruby.l1_cntrl2.forwardToCache]
type=MessageBuffer
buffer_size=0
eventq_index=0
ordered=false
randomization=false
slave=system.ruby.network.master[4]

[system.ruby.l1_cntrl2.mandatoryQueue]
type=MessageBuffer
buffer_size=0
eventq_index=0
ordered=false
randomization=false

[system.ruby.l1_cntrl2.requestFromCache]
type=MessageBuffer
buffer_size=0
eventq_index=0
ordered=false
randomization=false
master=system.ruby.network.slave[6]

[system.ruby.l1_cntrl2.responseFromCache]
type=MessageBuffer
buffer_size=0
eventq_index=0
ordered=false
randomization=false
master=system.ruby.network.slave[7]

[system.ruby.l1_cntrl2.responseToCache]
type=MessageBuffer
buffer_size=0
eventq_index=0
ordered=false
randomization=false
slave=system.ruby.network.master[5]

[system.ruby.l1_cntrl2.sequencer]
type=RubySequencer
clk_domain=system.cpu_clk_domain
coreid=99
dcache=system.ruby.l1_cntrl2.L1Dcache
dcache_hit_latency=1
deadlock_threshold=1000000
eventq_index=0
icache=system.ruby.l1_cntrl2.L1Icache
icache_hit_latency=1
is_cpu_sequencer=true
max_outstanding_requests=16
no_retry_on_stall=false
ruby_system=system.ruby
support_data_reqs=true
support_inst_reqs=true
system=system
using_network_tester=false
using_ruby_tester=false
version=2
slave=system.cpu2.port

[system.ruby.l1_cntrl2.triggerQueue]
type=MessageBuffer
buffer_size=0
eventq_index=0
ordered=false
randomization=false

[system.ruby.l1_cntrl2.unblockFromCache]
type=MessageBuffer
buffer_size=0
eventq_index=0
ordered=false
randomization=false
master=system.ruby.network.slave[8]

[system.ruby.l1_cntrl3]
type=L1Cache_Controller
children=L1Dcache L1Icache L2cache forwardToCache mandatoryQueue requestFromCache responseFromCache responseToCache sequencer triggerQueue unblockFromCache
L1Dcache=system.ruby.l1_cntrl3.L1Dcache
L1Icache=system.ruby.l1_cntrl3.L1Icache
L2cache=system.ruby.l1_cntrl3.L2cache
buffer_size=0
cache_response_latency=10
clk_domain=system.cpu_clk_domain
cluster_id=0
eventq_index=0
forwardToCache=system.ruby.l1_cntrl3.forwardToCache
issue_latency=2
l2_cache_hit_latency=10
mandatoryQueue=system.ruby.l1_cntrl3.mandatoryQueue
no_mig_atomic=true
number_of_TBEs=256
recycle_latency=10
requestFromCache=system.ruby.l1_cntrl3.requestFromCache
responseFromCache=system.ruby.l1_cntrl3.responseFromCache
responseToCache=system.ruby.l1_cntrl3.responseToCache
ruby_system=system.ruby
send_evictions=false
sequencer=system.ruby.l1_cntrl3.sequencer
system=system
transitions_per_cycle=32
triggerQueue=system.ruby.l1_cntrl3.triggerQueue
unblockFromCache=system.ruby.l1_cntrl3.unblockFromCache
version=3

[system.ruby.l1_cntrl3.L1Dcache]
type=RubyCache
children=replacement_policy
assoc=2
block_size=0
dataAccessLatency=1
dataArrayBanks=1
eventq_index=0
is_icache=false
replacement_policy=system.ruby.l1_cntrl3.L1Dcache.replacement_policy
resourceStalls=false
ruby_system=system.ruby
size=256
start_index_bit=6
tagAccessLatency=1
tagArrayBanks=1

[system.ruby.l1_cntrl3.L1Dcache.replacement_policy]
type=PseudoLRUReplacementPolicy
assoc=2
block_size=64
eventq_index=0
size=256

[system.ruby.l1_cntrl3.L1Icache]
type=RubyCache
children=replacement_policy
assoc=2
block_size=0
dataAccessLatency=1
dataArrayBanks=1
eventq_index=0
is_icache=true
replacement_policy=system.ruby.l1_cntrl3.L1Icache.replacement_policy
resourceStalls=false
ruby_system=system.ruby
size=256
start_index_bit=6
tagAccessLatency=1
tagArrayBanks=1

[system.ruby.l1_cntrl3.L1Icache.replacement_policy]
type=PseudoLRUReplacementPolicy
assoc=2
block_size=64
eventq_index=0
size=256

[system.ruby.l1_cntrl3.L2cache]
type=RubyCache
children=replacement_policy
assoc=2
block_size=0
dataAccessLatency=1
dataArrayBanks=1
eventq_index=0
is_icache=false
replacement_policy=system.ruby.l1_cntrl3.L2cache.replacement_policy
resourceStalls=false
ruby_system=system.ruby
size=512
start_index_bit=6
tagAccessLatency=1
tagArrayBanks=1

[system.ruby.l1_cntrl3.L2cache.replacement_policy]
type=PseudoLRUReplacementPolicy
assoc=2
block_size=64
eventq_index=0
size=512

[system.ruby.l1_cntrl3.forwardToCache]
type=MessageBuffer
buffer_size=0
eventq_index=0
ordered=false
randomization=false
slave=system.ruby.network.master[6]

[system.ruby.l1_cntrl3.mandatoryQueue]
type=MessageBuffer
buffer_size=0
eventq_index=0
ordered=false
randomization=false

[system.ruby.l1_cntrl3.requestFromCache]
type=MessageBuffer
buffer_size=0
eventq_index=0
ordered=false
randomization=false
master=system.ruby.network.slave[9]

[system.ruby.l1_cntrl3.responseFromCache]
type=MessageBuffer
buffer_size=0
eventq_index=0
ordered=false
randomization=false
master=system.ruby.network.slave[10]

[system.ruby.l1_cntrl3.responseToCache]
type=MessageBuffer
buffer_size=0
eventq_index=0
ordered=false
randomization=false
slave=system.ruby.network.master[7]

[system.ruby.l1_cntrl3.sequencer]
type=RubySequencer
clk_domain=system.cpu_clk_domain
coreid=99
dcache=system.ruby.l1_cntrl3.L1Dcache
dcache_hit_latency=1
deadlock_threshold=1000000
eventq_index=0
icache=system.ruby.l1_cntrl3.L1Icache
icache_hit_latency=1
is_cpu_sequencer=true
max_outstanding_requests=16
no_retry_on_stall=false
ruby_system=system.ruby
support_data_reqs=true
support_inst_reqs=true
system=system
using_network_tester=false
using_ruby_tester=false
version=3
slave=system.cpu3.port

[system.ruby.l1_cntrl3.triggerQueue]
type=MessageBuffer
buffer_size=0
eventq_index=0
ordered=false
randomization=false

[system.ruby.l1_cntrl3.unblockFromCache]
type=MessageBuffer
buffer_size=0
eventq_index=0
ordered=false
randomization=false
master=system.ruby.network.slave[11]

[system.ruby.l1_cntrl4]
type=L1Cache_Controller
children=L1Dcache L1Icache L2cache forwardToCache mandatoryQueue requestFromCache responseFromCache responseToCache sequencer triggerQueue unblockFromCache
L1Dcache=system.ruby.l1_cntrl4.L1Dcache
L1Icache=system.ruby.l1_cntrl4.L1Icache
L2cache=system.ruby.l1_cntrl4.L2cache
buffer_size=0
cache_response_latency=10
clk_domain=system.cpu_clk_domain
cluster_id=0
eventq_index=0
forwardToCache=system.ruby.l1_cntrl4.forwardToCache
issue_latency=2
l2_cache_hit_latency=10
mandatoryQueue=system.ruby.l1_cntrl4.mandatoryQueue
no_mig_atomic=true
number_of_TBEs=256
recycle_latency=10
requestFromCache=system.ruby.l1_cntrl4.requestFromCache
responseFromCache=system.ruby.l1_cntrl4.responseFromCache
responseToCache=system.ruby.l1_cntrl4.responseToCache
ruby_system=system.ruby
send_evictions=false
sequencer=system.ruby.l1_cntrl4.sequencer
system=system
transitions_per_cycle=32
triggerQueue=system.ruby.l1_cntrl4.triggerQueue
unblockFromCache=system.ruby.l1_cntrl4.unblockFromCache
version=4

[system.ruby.l1_cntrl4.L1Dcache]
type=RubyCache
children=replacement_policy
assoc=2
block_size=0
dataAccessLatency=1
dataArrayBanks=1
eventq_index=0
is_icache=false
replacement_policy=system.ruby.l1_cntrl4.L1Dcache.replacement_policy
resourceStalls=false
ruby_system=system.ruby
size=256
start_index_bit=6
tagAccessLatency=1
tagArrayBanks=1

[system.ruby.l1_cntrl4.L1Dcache.replacement_policy]
type=PseudoLRUReplacementPolicy
assoc=2
block_size=64
eventq_index=0
size=256

[system.ruby.l1_cntrl4.L1Icache]
type=RubyCache
children=replacement_policy
assoc=2
block_size=0
dataAccessLatency=1
dataArrayBanks=1
eventq_index=0
is_icache=true
replacement_policy=system.ruby.l1_cntrl4.L1Icache.replacement_policy
resourceStalls=false
ruby_system=system.ruby
size=256
start_index_bit=6
tagAccessLatency=1
tagArrayBanks=1

[system.ruby.l1_cntrl4.L1Icache.replacement_policy]
type=PseudoLRUReplacementPolicy
assoc=2
block_size=64
eventq_index=0
size=256

[system.ruby.l1_cntrl4.L2cache]
type=RubyCache
children=replacement_policy
assoc=2
block_size=0
dataAccessLatency=1
dataArrayBanks=1
eventq_index=0
is_icache=false
replacement_policy=system.ruby.l1_cntrl4.L2cache.replacement_policy
resourceStalls=false
ruby_system=system.ruby
size=512
start_index_bit=6
tagAccessLatency=1
tagArrayBanks=1

[system.ruby.l1_cntrl4.L2cache.replacement_policy]
type=PseudoLRUReplacementPolicy
assoc=2
block_size=64
eventq_index=0
size=512

[system.ruby.l1_cntrl4.forwardToCache]
type=MessageBuffer
buffer_size=0
eventq_index=0
ordered=false
randomization=false
slave=system.ruby.network.master[8]

[system.ruby.l1_cntrl4.mandatoryQueue]
type=MessageBuffer
buffer_size=0
eventq_index=0
ordered=false
randomization=false

[system.ruby.l1_cntrl4.requestFromCache]
type=MessageBuffer
buffer_size=0
eventq_index=0
ordered=false
randomization=false
master=system.ruby.network.slave[12]

[system.ruby.l1_cntrl4.responseFromCache]
type=MessageBuffer
buffer_size=0
eventq_index=0
ordered=false
randomization=false
master=system.ruby.network.slave[13]

[system.ruby.l1_cntrl4.responseToCache]
type=MessageBuffer
buffer_size=0
eventq_index=0
ordered=false
randomization=false
slave=system.ruby.network.master[9]

[system.ruby.l1_cntrl4.sequencer]
type=RubySequencer
clk_domain=system.cpu_clk_domain
coreid=99
dcache=system.ruby.l1_cntrl4.L1Dcache
dcache_hit_latency=1
deadlock_threshold=1000000
eventq_index=0
icache=system.ruby.l1_cntrl4.L1Icache
icache_hit_latency=1
is_cpu_sequencer=true
max_outstanding_requests=16
no_retry_on_stall=false
ruby_system=system.ruby
support_data_reqs=true
support_inst_reqs=true
system=system
using_network_tester=false
using_ruby_tester=false
version=4
slave=system.cpu4.port

[system.ruby.l1_cntrl4.triggerQueue]
type=MessageBuffer
buffer_size=0
eventq_index=0
ordered=false
randomization=false

[system.ruby.l1_cntrl4.unblockFromCache]
type=MessageBuffer
buffer_size=0
eventq_index=0
ordered=false
randomization=false
master=system.ruby.network.slave[14]

[system.ruby.l1_cntrl5]
type=L1Cache_Controller
children=L1Dcache L1Icache L2cache forwardToCache mandatoryQueue requestFromCache responseFromCache responseToCache sequencer triggerQueue unblockFromCache
L1Dcache=system.ruby.l1_cntrl5.L1Dcache
L1Icache=system.ruby.l1_cntrl5.L1Icache
L2cache=system.ruby.l1_cntrl5.L2cache
buffer_size=0
cache_response_latency=10
clk_domain=system.cpu_clk_domain
cluster_id=0
eventq_index=0
forwardToCache=system.ruby.l1_cntrl5.forwardToCache
issue_latency=2
l2_cache_hit_latency=10
mandatoryQueue=system.ruby.l1_cntrl5.mandatoryQueue
no_mig_atomic=true
number_of_TBEs=256
recycle_latency=10
requestFromCache=system.ruby.l1_cntrl5.requestFromCache
responseFromCache=system.ruby.l1_cntrl5.responseFromCache
responseToCache=system.ruby.l1_cntrl5.responseToCache
ruby_system=system.ruby
send_evictions=false
sequencer=system.ruby.l1_cntrl5.sequencer
system=system
transitions_per_cycle=32
triggerQueue=system.ruby.l1_cntrl5.triggerQueue
unblockFromCache=system.ruby.l1_cntrl5.unblockFromCache
version=5

[system.ruby.l1_cntrl5.L1Dcache]
type=RubyCache
children=replacement_policy
assoc=2
block_size=0
dataAccessLatency=1
dataArrayBanks=1
eventq_index=0
is_icache=false
replacement_policy=system.ruby.l1_cntrl5.L1Dcache.replacement_policy
resourceStalls=false
ruby_system=system.ruby
size=256
start_index_bit=6
tagAccessLatency=1
tagArrayBanks=1

[system.ruby.l1_cntrl5.L1Dcache.replacement_policy]