[root]
type=Root
children=system
eventq_index=0
full_system=true
sim_quantum=0
time_sync_enable=false
time_sync_period=100000000000
time_sync_spin_threshold=100000000

[system]
type=LinuxX86System
children=acpi_description_table_pointer apicbridge bridge clk_domain cpu cpu_clk_domain dvfs_handler e820_table intel_mp_pointer intel_mp_table intrctrl iobus iocache membus pc physmem smbios_table voltage_domain
acpi_description_table_pointer=system.acpi_description_table_pointer
boot_osflags=earlyprintk=ttyS0 console=ttyS0 lpj=7999923 root=/dev/hda1
cache_line_size=64
clk_domain=system.clk_domain
e820_table=system.e820_table
eventq_index=0
exit_on_work_items=false
init_param=0
intel_mp_pointer=system.intel_mp_pointer
intel_mp_table=system.intel_mp_table
kernel=/dist/m5/system/binaries/x86_64-vmlinux-2.6.22.9
kernel_addr_check=true
load_addr_mask=18446744073709551615
load_offset=0
mem_mode=atomic
mem_ranges=0:134217727
memories=system.physmem
mmap_using_noreserve=false
multi_thread=false
num_work_ids=16
readfile=/z/atgutier/gem5/gem5-commit/tests/halt.sh
smbios_table=system.smbios_table
symbolfile=
thermal_components=
thermal_model=Null
work_begin_ckpt_count=0
work_begin_cpu_id_exit=-1
work_begin_exit_count=0
work_cpus_ckpt_count=0
work_end_ckpt_count=0
work_end_exit_count=0
work_item_id=-1
system_port=system.membus.slave[1]

[system.acpi_description_table_pointer]
type=X86ACPIRSDP
children=xsdt
eventq_index=0
oem_id=
revision=2
rsdt=Null
xsdt=system.acpi_description_table_pointer.xsdt

[system.acpi_description_table_pointer.xsdt]
type=X86ACPIXSDT
creator_id=
creator_revision=0
entries=
eventq_index=0
oem_id=
oem_revision=0
oem_table_id=

[system.apicbridge]
type=Bridge
clk_domain=system.clk_domain
delay=50000
eventq_index=0
ranges=11529215046068469760:11529215046068473855
req_size=16
resp_size=16
master=system.membus.slave[0]
slave=system.iobus.master[0]

[system.bridge]
type=Bridge
clk_domain=system.clk_domain
delay=50000
eventq_index=0
ranges=3221225472:4294901760 9223372036854775808:11529215046068469759 13835058055282163712:18446744073709551615
req_size=16
resp_size=16
master=system.iobus.slave[0]
slave=system.membus.master[0]

[system.clk_domain]
type=SrcClockDomain
clock=1000
domain_id=-1
eventq_index=0
init_perf_level=0
voltage_domain=system.voltage_domain

[system.cpu]
type=AtomicSimpleCPU
children=apic_clk_domain dcache dtb dtb_walker_cache icache interrupts isa itb itb_walker_cache l2cache toL2Bus tracer
branchPred=Null
checker=Null
clk_domain=system.cpu_clk_domain
cpu_id=0
do_checkpoint_insts=true
do_quiesce=true
do_statistics_insts=true
dtb=system.cpu.dtb
eventq_index=0
fastmem=false
function_trace=false
function_trace_start=0
interrupts=system.cpu.interrupts
isa=system.cpu.isa
itb=system.cpu.itb
max_insts_all_threads=0
max_insts_any_thread=0
max_loads_all_threads=0
max_loads_any_thread=0
numThreads=1
profile=0
progress_interval=0
simpoint_start_insts=
simulate_data_stalls=false
simulate_inst_stalls=false
socket_id=0
switched_out=false
system=system
tracer=system.cpu.tracer
width=1
workload=
dcache_port=system.cpu.dcache.cpu_side
icache_port=system.cpu.icache.cpu_side

[system.cpu.apic_clk_domain]
type=DerivedClockDomain
clk_divider=16
clk_domain=system.cpu_clk_domain
eventq_index=0

[system.cpu.dcache]
type=Cache
children=tags
addr_ranges=0:18446744073709551615
assoc=4
clk_domain=system.cpu_clk_domain
clusivity=mostly_incl
demand_mshr_reserve=1
eventq_index=0
hit_latency=2
is_read_only=false
max_miss_count=0
mshrs=4
prefetch_on_access=false
prefetcher=Null
response_latency=2
sequential_access=false
size=32768
system=system
tags=system.cpu.dcache.tags
tgts_per_mshr=20
write_buffers=8
writeback_clean=false
cpu_side=system.cpu.dcache_port
mem_side=system.cpu.toL2Bus.slave[1]

[system.cpu.dcache.tags]
type=LRU
assoc=4
block_size=64
clk_domain=system.cpu_clk_domain
eventq_index=0
hit_latency=2
sequential_access=false
size=32768

[system.cpu.dtb]
type=X86TLB
children=walker
eventq_index=0
size=64
walker=system.cpu.dtb.walker

[system.cpu.dtb.walker]
type=X86PagetableWalker
clk_domain=system.cpu_clk_domain
eventq_index=0
num_squash_per_cycle=4
system=system
port=system.cpu.dtb_walker_cache.cpu_side

[system.cpu.dtb_walker_cache]
type=Cache
children=tags
addr_ranges=0:18446744073709551615
assoc=2
clk_domain=system.cpu_clk_domain
clusivity=mostly_incl
demand_mshr_reserve=1
eventq_index=0
hit_latency=2
is_read_only=false
max_miss_count=0
mshrs=10
prefetch_on_access=false
prefetcher=Null
response_latency=2
sequential_access=false
size=1024
system=system
tags=system.cpu.dtb_walker_cache.tags
tgts_per_mshr=12
write_buffers=8
writeback_clean=false
cpu_side=system.cpu.dtb.walker.port
mem_side=system.cpu.toL2Bus.slave[3]

[system.cpu.dtb_walker_cache.tags]
type=LRU
assoc=2
block_size=64
clk_domain=system.cpu_clk_domain
eventq_index=0
hit_latency=2
sequential_access=false
size=1024

[system.cpu.icache]
type=Cache
children=tags
addr_ranges=0:18446744073709551615
assoc=1
clk_domain=system.cpu_clk_domain
clusivity=mostly_incl
demand_mshr_reserve=1
eventq_index=0
hit_latency=2
is_read_only=true
max_miss_count=0
mshrs=4
prefetch_on_access=false
prefetcher=Null
response_latency=2
sequential_access=false
size=32768
system=system
tags=system.cpu.icache.tags
tgts_per_mshr=20
write_buffers=8
writeback_clean=true
cpu_side=system.cpu.icache_port
mem_side=system.cpu.toL2Bus.slave[0]

[system.cpu.icache.tags]
type=LRU
assoc=1
block_size=64
clk_domain=system.cpu_clk_domain
eventq_index=0
hit_latency=2
sequential_access=false
size=32768

[system.cpu.interrupts]
type=X86LocalApic
clk_domain=system.cpu.apic_clk_domain
eventq_index=0
int_latency=1000
pio_addr=2305843009213693952
pio_latency=100000
system=system
int_master=system.membus.slave[3]
int_slave=system.membus.master[2]
pio=system.membus.master[1]

[system.cpu.isa]
type=X86ISA
eventq_index=0

[system.cpu.itb]
type=X86TLB
children=walker
eventq_index=0
size=64
walker=system.cpu.itb.walker

[system.cpu.itb.walker]
type=X86PagetableWalker
clk_domain=system.cpu_clk_domain
eventq_index=0
num_squash_per_cycle=4
system=system
port=system.cpu.itb_walker_cache.cpu_side

[system.cpu.itb_walker_cache]
type=Cache
children=tags
addr_ranges=0:18446744073709551615
assoc=2
clk_domain=system.cpu_clk_domain
clusivity=mostly_incl
demand_mshr_reserve=1
eventq_index=0
hit_latency=2
is_read_only=false
max_miss_count=0
mshrs=10
prefetch_on_access=false
prefetcher=Null
response_latency=2
sequential_access=false
size=1024
system=system
tags=system.cpu.itb_walker_cache.tags
tgts_per_mshr=12
write_buffers=8
writeback_clean=false
cpu_side=system.cpu.itb.walker.port
mem_side=system.cpu.toL2Bus.slave[2]

[system.cpu.itb_walker_cache.tags]
type=LRU
assoc=2
block_size=64
clk_domain=system.cpu_clk_domain
eventq_index=0
hit_latency=2
sequential_access=false
size=1024

[system.cpu.l2cache]
type=Cache
children=tags
addr_ranges=0:18446744073709551615
assoc=8
clk_domain=system.cpu_clk_domain
clusivity=mostly_incl
demand_mshr_reserve=1
eventq_index=0
hit_latency=20
is_read_only=false
max_miss_count=0
mshrs=20
prefetch_on_access=false
prefetcher=Null
response_latency=20
sequential_access=false
size=4194304
system=system
tags=system.cpu.l2cache.tags
tgts_per_mshr=12
write_buffers=8
writeback_clean=false
cpu_side=system.cpu.toL2Bus.master[0]
mem_side=system.membus.slave[2]

[system.cpu.l2cache.tags]
type=LRU
assoc=8
block_size=64
clk_domain=system.cpu_clk_domain
eventq_index=0
hit_latency=20
sequential_access=false
size=4194304

[system.cpu.toL2Bus]
type=CoherentXBar
children=snoop_filter
clk_domain=system.cpu_clk_domain
eventq_index=0
forward_latency=0
frontend_latency=1
point_of_coherency=false
response_latency=1
snoop_filter=system.cpu.toL2Bus.snoop_filter
snoop_response_latency=1
system=system
use_default_range=false
width=32
master=system.cpu.l2cache.cpu_side
slave=system.cpu.icache.mem_side system.cpu.dcache.mem_side system.cpu.itb_walker_cache.mem_side system.cpu.dtb_walker_cache.mem_side

[system.cpu.toL2Bus.snoop_filter]
type=SnoopFilter
eventq_index=0
lookup_latency=0
max_capacity=8388608
system=system

[system.cpu.tracer]
type=ExeTracer
eventq_index=0

[system.cpu_clk_domain]
type=SrcClockDomain
clock=500
domain_id=-1
eventq_index=0
init_perf_level=0
voltage_domain=system.voltage_domain

[system.dvfs_handler]
type=DVFSHandler
domains=
enable=false
eventq_index=0
sys_clk_domain=system.clk_domain
transition_latency=100000000

[system.e820_table]
type=X86E820Table
children=entries0 entries1 entries2 entries3 entries4
entries=system.e820_table.entries0 system.e820_table.entries1 system.e820_table.entries2 system.e820_table.entries3 system.e820_table.entries4
eventq_index=0

[system.e820_table.entries0]
type=X86E820Entry
addr=0
eventq_index=0
range_type=1
size=654336

[system.e820_table.entries1]
type=X86E820Entry
addr=654336
eventq_index=0
range_type=2
size=394240

[system.e820_table.entries2]
type=X86E820Entry
addr=1048576
eventq_index=0
range_type=1
size=133169152

[system.e820_table.entries3]
type=X86E820Entry
addr=134217728
eventq_index=0
range_type=2
size=3087007744

[system.e820_table.entries4]
type=X86E820Entry
addr=4294901760
eventq_index=0
range_type=2
size=65536

[system.intel_mp_pointer]
type=X86IntelMPFloatingPointer
default_config=0
eventq_index=0
imcr_present=true
spec_rev=4

[system.intel_mp_table]
type=X86IntelMPConfigTable
children=base_entries00 base_entries01 base_entries02 base_entries03 base_entries04 base_entries05 base_entries06 base_entries07 base_entries08 base_entries09 base_entries10 base_entries11 base_entries12 base_entries13 base_entries14 base_entries15 base_entries16 base_entries17 base_entries18 base_entries19 base_entries20 base_entries21 base_entries22 base_entries23 base_entries24 base_entries25 base_entries26 base_entries27 base_entries28 base_entries29 base_entries30 base_entries31 base_entries32 ext_entries
base_entries=system.intel_mp_table.base_entries00 system.intel_mp_table.base_entries01 system.intel_mp_table.base_entries02 system.intel_mp_table.base_entries03 system.intel_mp_table.base_entries04 system.intel_mp_table.base_entries05 system.intel_mp_table.base_entries06 system.intel_mp_table.base_entries07 system.intel_mp_table.base_entries08 system.intel_mp_table.base_entries09 system.intel_mp_table.base_entries10 system.intel_mp_table.base_entries11 system.intel_mp_table.base_entries12 system.intel_mp_table.base_entries13 system.intel_mp_table.base_entries14 system.intel_mp_table.base_entries15 system.intel_mp_table.base_entries16 system.intel_mp_table.base_entries17 system.intel_mp_table.base_entries18 system.intel_mp_table.base_entries19 system.intel_mp_table.base_entries20 system.intel_mp_table.base_entries21 system.intel_mp_table.base_entries22 system.intel_mp_table.base_entries23 system.intel_mp_table.base_entries24 system.intel_mp_table.base_entries25 system.intel_mp_table.base_entries26 system.intel_mp_table.base_entries27 system.intel_mp_table.base_entries28 system.intel_mp_table.base_entries29 system.intel_mp_table.base_entries30 system.intel_mp_table.base_entries31 system.intel_mp_table.base_entries32
eventq_index=0
ext_entries=system.intel_mp_table.ext_entries
local_apic=4276092928
oem_id=
oem_table_addr=0
oem_table_size=0
product_id=
spec_rev=4

[system.intel_mp_table.base_entries00]
type=X86IntelMPProcessor
bootstrap=true
enable=true
eventq_index=0
family=0
feature_flags=0
local_apic_id=0
local_apic_version=20
model=0
stepping=0

[system.intel_mp_table.base_entries01]
type=X86IntelMPIOAPIC
address=4273995776
enable=true
eventq_index=0
id=1
version=17

[system.intel_mp_table.base_entries02]
type=X86IntelMPBus
bus_id=0
bus_type=PCI
eventq_index=0

[system.intel_mp_table.base_entries03]
type=X86IntelMPBus
bus_id=1
bus_type=ISA
eventq_index=0

[system.intel_mp_table.base_entries04]
type=X86IntelMPIOIntAssignment
dest_io_apic_id=1
dest_io_apic_intin=16
eventq_index=0
interrupt_type=INT
polarity=ConformPolarity
source_bus_id=0
source_bus_irq=16
trigger=ConformTrigger

[system.intel_mp_table.base_entries05]
type=X86IntelMPIOIntAssignment
dest_io_apic_id=1
dest_io_apic_intin=0
eventq_index=0
interrupt_type=ExtInt
polarity=ConformPolarity
source_bus_id=1
source_bus_irq=0
trigger=ConformTrigger

[system.intel_mp_table.base_entries06]
type=X86IntelMPIOIntAssignment
dest_io_apic_id=1
dest_io_apic_intin=2
eventq_index=0
interrupt_type=INT
polarity=ConformPolarity
source_bus_id=1
source_bus_irq=0
trigger=ConformTrigger

[system.intel_mp_table.base_entries07]
type=X86IntelMPIOIntAssignment
dest_io_apic_id=1
dest_io_apic_intin=0
eventq_index=0
interrupt_type=ExtInt
polarity=ConformPolarity
source_bus_id=1
source_bus_irq=1
trigger=ConformTrigger

[system.intel_mp_table.base_entries08]
type=X86IntelMPIOIntAssignment
dest_io_apic_id=1
dest_io_apic_intin=1
eventq_index=0
interrupt_type=INT
polarity=ConformPolarity
source_bus_id=1
source_bus_irq=1
trigger=ConformTrigger

[system.intel_mp_table.base_entries09]
type=X86IntelMPIOIntAssignment
dest_io_apic_id=1
dest_io_apic_intin=0
eventq_index=0
interrupt_type=ExtInt
polarity=ConformPolarity
source_bus_id=1
source_bus_irq=3
trigger=ConformTrigger

[system.intel_mp_table.base_entries10]
type=X86IntelMPIOIntAssignment
dest_io_apic_id=1
dest_io_apic_intin=3
eventq_index=0
interrupt_type=INT
polarity=ConformPolarity
source_bus_id=1
source_bus_irq=3
trigger=ConformTrigger

[system.intel_mp_table.base_entries11]
type=X86IntelMPIOIntAssignment
dest_io_apic_id=1
dest_io_apic_intin=0
eventq_index=0
interrupt_type=ExtInt
polarity=ConformPolarity
source_bus_id=1
source_bus_irq=4
trigger=ConformTrigger

[system.intel_mp_table.base_entries12]
type=X86IntelMPIOIntAssignment
dest_io_apic_id=1
dest_io_apic_intin=4
eventq_index=0
interrupt_type=INT
polarity=ConformPolarity
source_bus_id=1
source_bus_irq=4
trigger=ConformTrigger

[system.intel_mp_table.base_entries13]
type=X86IntelMPIOIntAssignment
dest_io_apic_id=1
dest_io_apic_intin=0
eventq_index=0
interrupt_type=ExtInt
polarity=ConformPolarity
source_bus_id=1
source_bus_irq=5
trigger=ConformTrigger

[system.intel_mp_table.base_entries14]
type=X86IntelMPIOIntAssignment
dest_io_apic_id=1
dest_io_apic_intin=5
eventq_index=0
interrupt_type=INT
polarity=ConformPolarity
source_bus_id=1
source_bus_irq=5
trigger=ConformTrigger

[system.intel_mp_table.base_entries15]
type=X86IntelMPIOIntAssignment
dest_io_apic_id=1
dest_io_apic_intin=0
eventq_index=0
interrupt_type=ExtInt
polarity=ConformPolarity
source_bus_id=1
source_bus_irq=6
trigger=ConformTrigger

[system.intel_mp_table.base_entries16]
type=X86IntelMPIOIntAssignment
dest_io_apic_id=1
dest_io_apic_intin=6
eventq_index=0
interrupt_type=INT
polarity=ConformPolarity
source_bus_id=1
source_bus_irq=6
trigger=ConformTrigger

[system.intel_mp_table.base_entries17]
type=X86IntelMPIOIntAssignment
dest_io_apic_id=1
dest_io_apic_intin=0
eventq_index=0
interrupt_type=ExtInt
polarity=ConformPolarity
source_bus_id=1
source_bus_irq=7
trigger=ConformTrigger

[system.intel_mp_table.base_entries18]
type=X86IntelMPIOIntAssignment
dest_io_apic_id=1
dest_io_apic_intin=7
eventq_index=0
interrupt_type=INT
polarity=ConformPolarity
source_bus_id=1
source_bus_irq=7
trigger=ConformTrigger

[system.intel_mp_table.base_entries19]
type=X86IntelMPIOIntAssignment
dest_io_apic_id=1
dest_io_apic_intin=0
eventq_index=0
interrupt_type=ExtInt
polarity=ConformPolarity
source_bus_id=1
source_bus_irq=8
trigger=ConformTrigger

[system.intel_mp_table.base_entries20]
type=X86IntelMPIOIntAssignment
dest_io_apic_id=1
dest_io_apic_intin=8
eventq_index=0
interrupt_type=INT
polarity=ConformPolarity
source_bus_id=1
source_bus_irq=8
trigger=ConformTrigger

[system.intel_mp_table.base_entries21]
type=X86IntelMPIOIntAssignment
dest_io_apic_id=1
dest_io_apic_intin=0
eventq_index=0
interrupt_type=ExtInt
polarity=ConformPolarity
source_bus_id=1
source_bus_irq=9
trigger=ConformTrigger

[system.intel_mp_table.base_entries22]
type=X86IntelMPIOIntAssignment
dest_io_apic_id=1
dest_io_apic_intin=9
eventq_index=0
interrupt_type=INT
polarity=ConformPolarity
source_bus_id=1
source_bus_irq=9
trigger=ConformTrigger

[system.intel_mp_table.base_entries23]
type=X86IntelMPIOIntAssignment
dest_io_apic_id=1
dest_io_apic_intin=0
eventq_index=0
interrupt_type=ExtInt
polarity=ConformPolarity
source_bus_id=1
source_bus_irq=10
trigger=ConformTrigger

[system.intel_mp_table.base_entries24]
type=X86IntelMPIOIntAssignment
dest_io_apic_id=1
dest_io_apic_intin=10
eventq_index=0
interrupt_type=INT
polarity=ConformPolarity
source_bus_id=1
source_bus_irq=10
trigger=ConformTrigger

[system.intel_mp_table.base_entries25]
type=X86IntelMPIOIntAssignment
dest_io_apic_id=1
dest_io_apic_intin=0
eventq_index=0
interrupt_type=ExtInt
polarity=ConformPolarity
source_bus_id=1
source_bus_irq=11
trigger=ConformTrigger

[system.intel_mp_table.base_entries26]
type=X86IntelMPIOIntAssignment
dest_io_apic_id=1
dest_io_apic_intin=11
eventq_index=0
interrupt_type=INT
polarity=ConformPolarity
source_bus_id=1
source_bus_irq=11
trigger=ConformTrigger

[system.intel_mp_table.base_entries27]
type=X86IntelMPIOIntAssignment
dest_io_apic_id=1
dest_io_apic_intin=0
eventq_index=0
interrupt_type=ExtInt
polarity=ConformPolarity
source_bus_id=1
source_bus_irq=12
trigger=ConformTrigger

[system.intel_mp_table.base_entries28]
type=X86IntelMPIOIntAssignment
dest_io_apic_id=1
dest_io_apic_intin=12
eventq_index=0
interrupt_type=INT
polarity=ConformPolarity
source_bus_id=1
source_bus_irq=12
trigger=ConformTrigger

[system.intel_mp_table.base_entries29]
type=X86IntelMPIOIntAssignment
dest_io_apic_id=1
dest_io_apic_intin=0
eventq_index=0
interrupt_type=ExtInt
polarity=ConformPolarity
source_bus_id=1
source_bus_irq=13
trigger=ConformTrigger

[system.intel_mp_table.base_entries30]
type=X86IntelMPIOIntAssignment
dest_io_apic_id=1
dest_io_apic_intin=13
eventq_index=0
interrupt_type=INT
polarity=ConformPolarity
source_bus_id=1
source_bus_irq=13
trigger=ConformTrigger

[system.intel_mp_table.base_entries31]
type=X86IntelMPIOIntAssignment
dest_io_apic_id=1
dest_io_apic_intin=0
eventq_index=0
interrupt_type=ExtInt
polarity=ConformPolarity
source_bus_id=1
source_bus_irq=14
trigger=ConformTrigger

[system.intel_mp_table.base_entries32]
type=X86IntelMPIOIntAssignment
dest_io_apic_id=1
dest_io_apic_intin=14
eventq_index=0
interrupt_type=INT
polarity=ConformPolarity
source_bus_id=1
source_bus_irq=14
trigger=ConformTrigger

[system.intel_mp_table.ext_entries]
type=X86IntelMPBusHierarchy
bus_id=1
eventq_index=0
parent_bus=0
subtractive_decode=true

[system.intrctrl]
type=IntrControl
eventq_index=0
sys=system

[system.iobus]
type=NoncoherentXBar
clk_domain=system.clk_domain
eventq_index=0
forward_latency=1
frontend_latency=2
response_latency=2
use_default_range=false
width=16
default=system.pc.pci_host.pio
master=system.apicbridge.slave system.pc.south_bridge.cmos.pio system.pc.south_bridge.dma1.pio system.pc.south_bridge.ide.pio system.pc.south_bridge.keyboard.pio system.pc.south_bridge.pic1.pio system.pc.south_bridge.pic2.pio system.pc.south_bridge.pit.pio system.pc.south_bridge.speaker.pio system.pc.south_bridge.io_apic.pio system.pc.i_dont_exist1.pio system.pc.i_dont_exist2.pio system.pc.behind_pci.pio system.pc.com_1.pio system.pc.fake_com_2.pio system.pc.fake_com_3.pio system.pc.fake_com_4.pio system.pc.fake_floppy.pio system.iocache.cpu_side
slave=system.bridge.master system.pc.south_bridge.ide.dma system.pc.south_bridge.io_apic.int_master

[system.iocache]
type=Cache
children=tags
addr_ranges=0:134217727
assoc=8
clk_domain=system.clk_domain
clusivity=mostly_incl
demand_mshr_reserve=1
eventq_index=0
hit_latency=50
is_read_only=false
max_miss_count=0
mshrs=20
prefetch_on_access=false
prefetcher=Null
response_latency=50
sequential_access=false
size=1024
system=system
tags=system.iocache.tags
tgts_per_mshr=12
write_buffers=8
writeback_clean=false
cpu_side=system.iobus.master[18]
mem_side=system.membus.slave[4]

[system.iocache.tags]
type=LRU
assoc=8
block_size=64
clk_domain=system.clk_domain
eventq_index=0
hit_latency=50
sequential_access=false
size=1024

[system.membus]
type=CoherentXBar
children=badaddr_responder
clk_domain=system.clk_domain
eventq_index=0
forward_latency=4
frontend_latency=3
point_of_coherency=true
response_latency=2
snoop_filter=Null
snoop_response_latency=4
system=system
use_default_range=false
width=16
default=system.membus.badaddr_responder.pio
master=system.bridge.slave system.cpu.interrupts.pio system.cpu.interrupts.int_slave system.physmem.port
slave=system.apicbridge.master system.system_port system.cpu.l2cache.mem_side system.cpu.interrupts.int_master system.iocache.mem_side

[system.membus.badaddr_responder]
type=IsaFake
clk_domain=system.clk_domain
eventq_index=0
fake_mem=false
pio_addr=0
pio_latency=100000
pio_size=8
ret_bad_addr=true
ret_data16=65535
ret_data32=4294967295
ret_data64=18446744073709551615
ret_data8=255
system=system
update_data=false
warn_access=
pio=system.membus.default

[system.pc]
type=Pc
children=behind_pci com_1 fake_com_2 fake_com_3 fake_com_4 fake_floppy i_dont_exist1 i_dont_exist2 pci_host south_bridge
eventq_index=0
intrctrl=system.intrctrl
system=system

[system.pc.behind_pci]
type=IsaFake
clk_domain=system.clk_domain
eventq_index=0
fake_mem=false
pio_addr=9223372036854779128
pio_latency=100000
pio_size=8
ret_bad_addr=false
ret_data16=65535
ret_data32=4294967295
ret_data64=18446744073709551615
ret_data8=255
system=system
update_data=false
warn_access=
pio=system.iobus.master[12]

[system.pc.com_1]
type=Uart8250
children=terminal
clk_domain=system.clk_domain
eventq_index=0
pio_addr=9223372036854776824
pio_latency=100000
platform=system.pc
system=system
terminal=system.pc.com_1.terminal
pio=system.iobus.master[13]

[system.pc.com_1.terminal]
type=Terminal
eventq_index=0
intr_control=system.intrctrl
number=0
output=true
port=3456

[system.pc.fake_com_2]
type=IsaFake
clk_domain=system.clk_domain
eventq_index=0
fake_mem=false
pio_addr=9223372036854776568
pio_latency=100000
pio_size=8
ret_bad_addr=false
ret_data16=65535
ret_data32=4294967295
ret_data64=18446744073709551615
ret_data8=255
system=system
update_data=false
warn_access=
pio=system.iobus.master[14]

[system.pc.fake_com_3]
type=IsaFake
clk_domain=system.clk_domain
eventq_index=0
fake_mem=false
pio_addr=9223372036854776808
pio_latency=100000
pio_size=8
ret_bad_addr=false
ret_data16=65535
ret_data32=4294967295
ret_data64=18446744073709551615
ret_data8=255
system=system
update_data=false
warn_access=
pio=system.iobus.master[15]

[system.pc.fake_com_4]
type=IsaFake
clk_domain=system.clk_domain
eventq_index=0
fake_mem=false
pio_addr=9223372036854776552
pio_latency=100000
pio_size=8
ret_bad_addr=false
ret_data16=65535
ret_data32=4294967295
ret_data64=18446744073709551615
ret_data8=255
system=system
update_data=false
warn_access=
pio=system.iobus.master[16]

[system.pc.fake_floppy]
type=IsaFake
clk_domain=system.clk_domain
eventq_index=0
fake_mem=false
pio_addr=9223372036854776818
pio_latency=100000
pio_size=2
ret_bad_addr=false
ret_data16=65535
ret_data32=4294967295
ret_data64=18446744073709551615
ret_data8=255
system=system
update_data=false
warn_access=
pio=system.iobus.master[17]

[system.pc.i_dont_exist1]
type=IsaFake
clk_domain=system.clk_domain
eventq_index=0
fake_mem=false
pio_addr=9223372036854775936
pio_latency=100000
pio_size=1
ret_bad_addr=false
ret_data16=65535
ret_data32=4294967295
ret_data64=18446744073709551615
ret_data8=255
system=system
update_data=false
warn_access=
pio=system.iobus.master[10]

[system.pc.i_dont_exist2]
type=IsaFake
clk_domain=system.clk_domain
eventq_index=0
fake_mem=false
pio_addr=9223372036854776045
pio_latency=100000
pio_size=1
ret_bad_addr=false
ret_data16=65535
ret_data32=4294967295
ret_data64=18446744073709551615
ret_data8=255
system=system
update_data=false
warn_access=
pio=system.iobus.master[11]

[system.pc.pci_host]
type=GenericPciHost
clk_domain=system.clk_domain
conf_base=13835058055282163712
conf_device_bits=8
conf_size=16777216
eventq_index=0
pci_dma_base=0
pci_mem_base=0
pci_pio_base=9223372036854775808
platform=system.pc
system=system
pio=system.iobus.default

[system.pc.south_bridge]
type=SouthBridge
children=cmos dma1 ide int_lines0 int_lines1 int_lines2 int_lines3 int_lines4 int_lines5 int_lines6 io_apic keyboard pic1 pic2 pit speaker
cmos=system.pc.south_bridge.cmos
dma1=system.pc.south_bridge.dma1
eventq_index=0
io_apic=system.pc.south_bridge.io_apic
keyboard=system.pc.south_bridge.keyboard
pic1=system.pc.south_bridge.pic1
pic2=system.pc.south_bridge.pic2
pit=system.pc.south_bridge.pit
platform=system.pc
speaker=system.pc.south_bridge.speaker

[system.pc.south_bridge.cmos]
type=Cmos
children=int_pin
clk_domain=system.clk_domain
eventq_index=0
int_pin=system.pc.south_bridge.cmos.int_pin
pio_addr=9223372036854775920
pio_latency=100000
system=system
time=Sun Jan  1 00:00:00 2012
pio=system.iobus.master[1]

[system.pc.south_bridge.cmos.int_pin]
type=X86IntSourcePin
eventq_index=0

[system.pc.south_bridge.dma1]
type=I8237
clk_domain=system.clk_domain
eventq_index=0
pio_addr=9223372036854775808
pio_latency=100000
system=system
pio=system.iobus.master[2]

[system.pc.south_bridge.ide]
type=IdeController
children=disks0 disks1
BAR0=496
BAR0LegacyIO=true
BAR0Size=8
BAR1=1012
BAR1LegacyIO=true
BAR1Size=3
BAR2=368
BAR2LegacyIO=true
BAR2Size=8
BAR3=884
BAR3LegacyIO=true
BAR3Size=3
BAR4=1
BAR4LegacyIO=false
BAR4Size=16
BAR5=1
BAR5LegacyIO=false
BAR5Size=0
BIST=0
CacheLineSize=0
CapabilityPtr=0
CardbusCIS=0
ClassCode=1
Command=0
DeviceID=28945
ExpansionROM=0
HeaderType=0
InterruptLine=14
InterruptPin=1
LatencyTimer=0
LegacyIOBase=9223372036854775808
MSICAPBaseOffset=0
MSICAPCapId=0
MSICAPMaskBits=0
MSICAPMsgAddr=0
MSICAPMsgCtrl=0
MSICAPMsgData=0
MSICAPMsgUpperAddr=0
MSICAPNextCapability=0
MSICAPPendingBits=0
MSIXCAPBaseOffset=0
MSIXCAPCapId=0
MSIXCAPNextCapability=0
MSIXMsgCtrl=0
MSIXPbaOffset=0
MSIXTableOffset=0
MaximumLatency=0
MinimumGrant=0
PMCAPBaseOffset=0
PMCAPCapId=0
PMCAPCapabilities=0
PMCAPCtrlStatus=0
PMCAPNextCapability=0
PXCAPBaseOffset=0
PXCAPCapId=0
PXCAPCapabilities=0
PXCAPDevCap2=0
PXCAPDevCapabilities=0
PXCAPDevCtrl=0
PXCAPDevCtrl2=0
PXCAPDevStatus=0
PXCAPLinkCap=0
PXCAPLinkCtrl=0
PXCAPLinkStatus=0
PXCAPNextCapability=0
ProgIF=128
Revision=0
Status=640
SubClassCode=1
SubsystemID=0
SubsystemVendorID=0
VendorID=32902
clk_domain=system.clk_domain
config_latency=20000
ctrl_offset=0
disks=system.pc.south_bridge.ide.disks0 system.pc.south_bridge.ide.disks1
eventq_index=0
host=system.pc.pci_host
io_shift=0
pci_bus=0
pci_dev=4
pci_func=0
pio_latency=30000
system=system
dma=system.iobus.slave[1]
pio=system.iobus.master[3]

[system.pc.south_bridge.ide.disks0]
type=IdeDisk
children=image
delay=1000000
driveID=master
eventq_index=0
image=system.pc.south_bridge.ide.disks0.image

[system.pc.south_bridge.ide.disks0.image]
type=CowDiskImage
children=child
child=system.pc.south_bridge.ide.disks0.image.child
eventq_index=0
image_file=
read_only=false
table_size=65536

[system.pc.south_bridge.ide.disks0.image.child]
type=RawDiskImage
eventq_index=0
image_file=/dist/m5/system/disks/linux-x86.img
read_only=true

[system.pc.south_bridge.ide.disks1]
type=IdeDisk
children=image
delay=1000000
driveID=master
eventq_index=0
image=system.pc.south_bridge.ide.disks1.image

[system.pc.south_bridge.ide.disks1.image]
type=CowDiskImage
children=child
child=system.pc.south_bridge.ide.disks1.image.child
eventq_index=0
image_file=
read_only=false
table_size=65536

[system.pc.south_bridge.ide.disks1.image.child]
type=RawDiskImage
eventq_index=0
image_file=/dist/m5/system/disks/linux-bigswap2.img
read_only=true

[system.pc.south_bridge.int_lines0]
type=X86IntLine
children=sink
eventq_index=0
sink=system.pc.south_bridge.int_lines0.sink
source=system.pc.south_bridge.pic1.output

[system.pc.south_bridge.int_lines0.sink]
type=X86IntSinkPin
device=system.pc.south_bridge.io_apic
eventq_index=0
number=0

[system.pc.south_bridge.int_lines1]
type=X86IntLine
children=sink
eventq_index=0
sink=system.pc.south_bridge.int_lines1.sink
source=system.pc.south_bridge.pic2.output

[system.pc.south_bridge.int_lines1.sink]
type=X86IntSinkPin
device=system.pc.south_bridge.pic1
eventq_index=0
number=2

[system.pc.south_bridge.int_lines2]
type=X86IntLine
children=sink
eventq_index=0
sink=system.pc.south_bridge.int_lines2.sink
source=system.pc.south_bridge.cmos.int_pin

[system.pc.south_bridge.int_lines2.sink]
type=X86IntSinkPin
device=system.pc.south_bridge.pic2
eventq_index=0
number=0

[system.pc.south_bridge.int_lines3]
type=X86IntLine
children=sink
eventq_index=0
sink=system.pc.south_bridge.int_lines3.sink
source=system.pc.south_bridge.pit.int_pin

[system.pc.south_bridge.int_lines3.sink]
type=X86IntSinkPin
device=system.pc.south_bridge.pic1
eventq_index=0
number=0

[system.pc.south_bridge.int_lines4]
type=X86IntLine
children=sink
eventq_index=0
sink=system.pc.south_bridge.int_lines4.sink
source=system.pc.south_bridge.pit.int_pin

[system.pc.south_bridge.int_lines4.sink]
type=X86IntSinkPin
device=system.pc.south_bridge.io_apic
eventq_index=0
number=2

[system.pc.south_bridge.int_lines5]
type=X86IntLine
children=sink
eventq_index=0
sink=system.pc.south_bridge.int_lines5.sink
source=system.pc.south_bridge.keyboard.keyboard_int_pin

[system.pc.south_bridge.int_lines5.sink]
type=X86IntSinkPin
device=system.pc.south_bridge.io_apic
eventq_index=0
number=1

[system.pc.south_bridge.int_lines6]
type=X86IntLine
children=sink
eventq_index=0
sink=system.pc.south_bridge.int_lines6.sink
source=system.pc.south_bridge.keyboard.mouse_int_pin

[system.pc.south_bridge.int_lines6.sink]
type=X86IntSinkPin
device=system.pc.south_bridge.io_apic
eventq_index=0
number=12

[system.pc.south_bridge.io_apic]
type=I82094AA
apic_id=1
clk_domain=system.clk_domain
eventq_index=0
external_int_pic=system.pc.south_bridge.pic1
int_latency=1000
pio_addr=4273995776
pio_latency=100000
system=system
int_master=system.iobus.slave[2]
pio=system.iobus.master[9]

[system.pc.south_bridge.keyboard]
type=I8042
children=keyboard_int_pin mouse_int_pin
clk_domain=system.clk_domain
command_port=9223372036854775908