[hello]
type=HelloObject
children=goodbye_object
eventq_index=0
goodbye_object=hello.goodbye_object
number_of_fires=5
time_to_wait=2000000

[hello.goodbye_object]
type=GoodbyeObject
buffer_size=100
eventq_index=0
write_bandwidth=9537.000000

[root]
type=Root
children=hello
eventq_index=0
full_system=false
sim_quantum=0
time_sync_enable=false
time_sync_period=100000000000
time_sync_spin_threshold=100000000

