[root]
type=Root
children=system
eventq_index=0
full_system=false
sim_quantum=0
time_sync_enable=false
time_sync_period=100000000
time_sync_spin_threshold=100000

[system]
type=System
children=clk_domain cpu0 cpu1 cpu2 cpu3 cpu4 cpu5 cpu6 cpu7 cpu_clk_domain dvfs_handler mem_ctrls ruby sys_port_proxy voltage_domain
boot_osflags=a
cache_line_size=64
clk_domain=system.clk_domain
eventq_index=0
init_param=0
kernel=
kernel_addr_check=true
load_addr_mask=1099511627775
load_offset=0
mem_mode=timing
mem_ranges=0:268435455
memories=system.mem_ctrls
mmap_using_noreserve=false
num_work_ids=16
readfile=
symbolfile=
work_begin_ckpt_count=0
work_begin_cpu_id_exit=-1
work_begin_exit_count=0
work_cpus_ckpt_count=0
work_end_ckpt_count=0
work_end_exit_count=0
work_item_id=-1
system_port=system.sys_port_proxy.slave[0]

[system.clk_domain]
type=SrcClockDomain
clock=1
domain_id=-1
eventq_index=0
init_perf_level=0
voltage_domain=system.voltage_domain

[system.cpu0]
type=MemTest
clk_domain=system.cpu_clk_domain
eventq_index=0
interval=1
max_loads=100000
percent_functional=50
percent_reads=65
percent_uncacheable=0
progress_check=5000000
progress_interval=10000
size=65536
suppress_func_warnings=true
system=system
port=system.ruby.l1_cntrl0.sequencer.slave[0]

[system.cpu1]
type=MemTest
clk_domain=system.cpu_clk_domain
eventq_index=0
interval=1
max_loads=100000
percent_functional=50
percent_reads=65
percent_uncacheable=0
progress_check=5000000
progress_interval=10000
size=65536
suppress_func_warnings=true
system=system
port=system.ruby.l1_cntrl1.sequencer.slave[0]

[system.cpu2]
type=MemTest
clk_domain=system.cpu_clk_domain
eventq_index=0
interval=1
max_loads=100000
percent_functional=50
percent_reads=65
percent_uncacheable=0
progress_check=5000000
progress_interval=10000
size=65536
suppress_func_warnings=true
system=system
port=system.ruby.l1_cntrl2.sequencer.slave[0]

[system.cpu3]
type=MemTest
clk_domain=system.cpu_clk_domain
eventq_index=0
interval=1
max_loads=100000
percent_functional=50
percent_reads=65
percent_uncacheable=0
progress_check=5000000
progress_interval=10000
size=65536
suppress_func_warnings=true
system=system
port=system.ruby.l1_cntrl3.sequencer.slave[0]

[system.cpu4]
type=MemTest
clk_domain=system.cpu_clk_domain
eventq_index=0
interval=1
max_loads=100000
percent_functional=50
percent_reads=65
percent_uncacheable=0
progress_check=5000000
progress_interval=10000
size=65536
suppress_func_warnings=true
system=system
port=system.ruby.l1_cntrl4.sequencer.slave[0]

[system.cpu5]
type=MemTest
clk_domain=system.cpu_clk_domain
eventq_index=0
interval=1
max_loads=100000
percent_functional=50
percent_reads=65
percent_uncacheable=0
progress_check=5000000
progress_interval=10000
size=65536
suppress_func_warnings=true
system=system
port=system.ruby.l1_cntrl5.sequencer.slave[0]

[system.cpu6]
type=MemTest
clk_domain=system.cpu_clk_domain
eventq_index=0
interval=1
max_loads=100000
percent_functional=50
percent_reads=65
percent_uncacheable=0
progress_check=5000000
progress_interval=10000
size=65536
suppress_func_warnings=true
system=system
port=system.ruby.l1_cntrl6.sequencer.slave[0]

[system.cpu7]
type=MemTest
clk_domain=system.cpu_clk_domain
eventq_index=0
interval=1
max_loads=100000
percent_functional=50
percent_reads=65
percent_uncacheable=0
progress_check=5000000
progress_interval=10000
size=65536
suppress_func_warnings=true
system=system
port=system.ruby.l1_cntrl7.sequencer.slave[0]

[system.cpu_clk_domain]
type=SrcClockDomain
clock=1
domain_id=-1
eventq_index=0
init_perf_level=0
voltage_domain=system.voltage_domain

[system.dvfs_handler]
type=DVFSHandler
domains=
enable=false
eventq_index=0
sys_clk_domain=system.clk_domain
transition_latency=100000

[system.mem_ctrls]
type=DRAMCtrl
IDD0=0.075000
IDD02=0.000000
IDD2N=0.050000
IDD2N2=0.000000
IDD2P0=0.000000
IDD2P02=0.000000
IDD2P1=0.000000
IDD2P12=0.000000
IDD3N=0.057000
IDD3N2=0.000000
IDD3P0=0.000000
IDD3P02=0.000000
IDD3P1=0.000000
IDD3P12=0.000000
IDD4R=0.187000
IDD4R2=0.000000
IDD4W=0.165000
IDD4W2=0.000000
IDD5=0.220000
IDD52=0.000000
IDD6=0.000000
IDD62=0.000000
VDD=1.500000
VDD2=0.000000
activation_limit=4
addr_mapping=RoRaBaCoCh
bank_groups_per_rank=0
banks_per_rank=8
burst_length=8
channels=1
clk_domain=system.clk_domain
conf_table_reported=true
device_bus_width=8
device_rowbuffer_size=1024
device_size=536870912
devices_per_rank=8
dll=true
eventq_index=0
in_addr_map=true
max_accesses_per_row=16
mem_sched_policy=frfcfs
min_writes_per_switch=16
null=false
page_policy=open_adaptive
range=0:268435455
ranks_per_channel=2
read_buffer_size=32
static_backend_latency=10
static_frontend_latency=10
tBURST=5
tCCD_L=0
tCK=1
tCL=14
tCS=3
tRAS=35
tRCD=14
tREFI=7800
tRFC=260
tRP=14
tRRD=6
tRRD_L=0
tRTP=8
tRTW=3
tWR=15
tWTR=8
tXAW=30
tXP=0
tXPDLL=0
tXS=0
tXSDLL=0
write_buffer_size=64
write_high_thresh_perc=85
write_low_thresh_perc=50
port=system.ruby.dir_cntrl0.memory

[system.ruby]
type=RubySystem
children=clk_domain dir_cntrl0 l1_cntrl0 l1_cntrl1 l1_cntrl2 l1_cntrl3 l1_cntrl4 l1_cntrl5 l1_cntrl6 l1_cntrl7 l2_cntrl0 memctrl_clk_domain network
access_backing_store=false
all_instructions=false
block_size_bytes=64
clk_domain=system.ruby.clk_domain
eventq_index=0
hot_lines=false
memory_size_bits=48
num_of_sequencers=8
phys_mem=Null
random_seed=1234
randomization=false

[system.ruby.clk_domain]
type=SrcClockDomain
clock=1
domain_id=-1
eventq_index=0
init_perf_level=0
voltage_domain=system.voltage_domain

[system.ruby.dir_cntrl0]
type=Directory_Controller
children=directory forwardFromDir requestToDir responseFromDir responseFromMemory responseToDir
buffer_size=0
clk_domain=system.ruby.clk_domain
cluster_id=0
directory=system.ruby.dir_cntrl0.directory
directory_latency=6
eventq_index=0
forwardFromDir=system.ruby.dir_cntrl0.forwardFromDir
number_of_TBEs=256
recycle_latency=10
requestToDir=system.ruby.dir_cntrl0.requestToDir
responseFromDir=system.ruby.dir_cntrl0.responseFromDir
responseFromMemory=system.ruby.dir_cntrl0.responseFromMemory
responseToDir=system.ruby.dir_cntrl0.responseToDir
ruby_system=system.ruby
system=system
to_memory_controller_latency=1
transitions_per_cycle=32
version=0
memory=system.mem_ctrls.port

[system.ruby.dir_cntrl0.directory]
type=RubyDirectoryMemory
eventq_index=0
numa_high_bit=5
size=268435456
version=0

[system.ruby.dir_cntrl0.forwardFromDir]
type=MessageBuffer
buffer_size=0
eventq_index=0
ordered=false
randomization=false
recycle_latency=10
master=system.ruby.network.slave[20]

[system.ruby.dir_cntrl0.requestToDir]
type=MessageBuffer
buffer_size=0
eventq_index=0
ordered=false
randomization=false
recycle_latency=10
slave=system.ruby.network.master[19]

[system.ruby.dir_cntrl0.responseFromDir]
type=MessageBuffer
buffer_size=0
eventq_index=0
ordered=false
randomization=false
recycle_latency=10
master=system.ruby.network.slave[19]

[system.ruby.dir_cntrl0.responseFromMemory]
type=MessageBuffer
buffer_size=0
eventq_index=0
ordered=false
randomization=false
recycle_latency=10

[system.ruby.dir_cntrl0.responseToDir]
type=MessageBuffer
buffer_size=0
eventq_index=0
ordered=false
randomization=false
recycle_latency=10
slave=system.ruby.network.master[20]

[system.ruby.l1_cntrl0]
type=L1Cache_Controller
children=L1Dcache L1Icache mandatoryQueue requestFromL1Cache requestToL1Cache responseFromL1Cache responseToL1Cache sequencer triggerQueue
L1Dcache=system.ruby.l1_cntrl0.L1Dcache
L1Icache=system.ruby.l1_cntrl0.L1Icache
buffer_size=0
clk_domain=system.cpu_clk_domain
cluster_id=0
eventq_index=0
l2_select_num_bits=0
mandatoryQueue=system.ruby.l1_cntrl0.mandatoryQueue
number_of_TBEs=256
recycle_latency=10
requestFromL1Cache=system.ruby.l1_cntrl0.requestFromL1Cache
requestToL1Cache=system.ruby.l1_cntrl0.requestToL1Cache
request_latency=2
responseFromL1Cache=system.ruby.l1_cntrl0.responseFromL1Cache
responseToL1Cache=system.ruby.l1_cntrl0.responseToL1Cache
ruby_system=system.ruby
send_evictions=false
sequencer=system.ruby.l1_cntrl0.sequencer
system=system
transitions_per_cycle=32
triggerQueue=system.ruby.l1_cntrl0.triggerQueue
use_timeout_latency=50
version=0

[system.ruby.l1_cntrl0.L1Dcache]
type=RubyCache
children=replacement_policy
assoc=2
dataAccessLatency=1
dataArrayBanks=1
eventq_index=0
is_icache=false
replacement_policy=system.ruby.l1_cntrl0.L1Dcache.replacement_policy
resourceStalls=false
ruby_system=system.ruby
size=256
start_index_bit=6
tagAccessLatency=1
tagArrayBanks=1

[system.ruby.l1_cntrl0.L1Dcache.replacement_policy]
type=PseudoLRUReplacementPolicy
assoc=2
block_size=64
eventq_index=0
size=256

[system.ruby.l1_cntrl0.L1Icache]
type=RubyCache
children=replacement_policy
assoc=2
dataAccessLatency=1
dataArrayBanks=1
eventq_index=0
is_icache=true
replacement_policy=system.ruby.l1_cntrl0.L1Icache.replacement_policy
resourceStalls=false
ruby_system=system.ruby
size=256
start_index_bit=6
tagAccessLatency=1
tagArrayBanks=1

[system.ruby.l1_cntrl0.L1Icache.replacement_policy]
type=PseudoLRUReplacementPolicy
assoc=2
block_size=64
eventq_index=0
size=256

[system.ruby.l1_cntrl0.mandatoryQueue]
type=MessageBuffer
buffer_size=0
eventq_index=0
ordered=false
randomization=false
recycle_latency=10

[system.ruby.l1_cntrl0.requestFromL1Cache]
type=MessageBuffer
buffer_size=0
eventq_index=0
ordered=false
randomization=false
recycle_latency=10
master=system.ruby.network.slave[0]

[system.ruby.l1_cntrl0.requestToL1Cache]
type=MessageBuffer
buffer_size=0
eventq_index=0
ordered=false
randomization=false
recycle_latency=10
slave=system.ruby.network.master[0]

[system.ruby.l1_cntrl0.responseFromL1Cache]
type=MessageBuffer
buffer_size=0
eventq_index=0
ordered=false
randomization=false
recycle_latency=10
master=system.ruby.network.slave[1]

[system.ruby.l1_cntrl0.responseToL1Cache]
type=MessageBuffer
buffer_size=0
eventq_index=0
ordered=false
randomization=false
recycle_latency=10
slave=system.ruby.network.master[1]

[system.ruby.l1_cntrl0.sequencer]
type=RubySequencer
clk_domain=system.cpu_clk_domain
dcache=system.ruby.l1_cntrl0.L1Dcache
dcache_hit_latency=1
deadlock_threshold=1000000
eventq_index=0
icache=system.ruby.l1_cntrl0.L1Icache
icache_hit_latency=1
max_outstanding_requests=16
ruby_system=system.ruby
support_data_reqs=true
support_inst_reqs=true
system=system
using_network_tester=false
using_ruby_tester=false
version=0
slave=system.cpu0.port

[system.ruby.l1_cntrl0.triggerQueue]
type=MessageBuffer
buffer_size=0
eventq_index=0
ordered=true
randomization=false
recycle_latency=10

[system.ruby.l1_cntrl1]
type=L1Cache_Controller
children=L1Dcache L1Icache mandatoryQueue requestFromL1Cache requestToL1Cache responseFromL1Cache responseToL1Cache sequencer triggerQueue
L1Dcache=system.ruby.l1_cntrl1.L1Dcache
L1Icache=system.ruby.l1_cntrl1.L1Icache
buffer_size=0
clk_domain=system.cpu_clk_domain
cluster_id=0
eventq_index=0
l2_select_num_bits=0
mandatoryQueue=system.ruby.l1_cntrl1.mandatoryQueue
number_of_TBEs=256
recycle_latency=10
requestFromL1Cache=system.ruby.l1_cntrl1.requestFromL1Cache
requestToL1Cache=system.ruby.l1_cntrl1.requestToL1Cache
request_latency=2
responseFromL1Cache=system.ruby.l1_cntrl1.responseFromL1Cache
responseToL1Cache=system.ruby.l1_cntrl1.responseToL1Cache
ruby_system=system.ruby
send_evictions=false
sequencer=system.ruby.l1_cntrl1.sequencer
system=system
transitions_per_cycle=32
triggerQueue=system.ruby.l1_cntrl1.triggerQueue
use_timeout_latency=50
version=1

[system.ruby.l1_cntrl1.L1Dcache]
type=RubyCache
children=replacement_policy
assoc=2
dataAccessLatency=1
dataArrayBanks=1
eventq_index=0
is_icache=false
replacement_policy=system.ruby.l1_cntrl1.L1Dcache.replacement_policy
resourceStalls=false
ruby_system=system.ruby
size=256
start_index_bit=6
tagAccessLatency=1
tagArrayBanks=1

[system.ruby.l1_cntrl1.L1Dcache.replacement_policy]
type=PseudoLRUReplacementPolicy
assoc=2
block_size=64
eventq_index=0
size=256

[system.ruby.l1_cntrl1.L1Icache]
type=RubyCache
children=replacement_policy
assoc=2
dataAccessLatency=1
dataArrayBanks=1
eventq_index=0
is_icache=true
replacement_policy=system.ruby.l1_cntrl1.L1Icache.replacement_policy
resourceStalls=false
ruby_system=system.ruby
size=256
start_index_bit=6
tagAccessLatency=1
tagArrayBanks=1

[system.ruby.l1_cntrl1.L1Icache.replacement_policy]
type=PseudoLRUReplacementPolicy
assoc=2
block_size=64
eventq_index=0
size=256

[system.ruby.l1_cntrl1.mandatoryQueue]
type=MessageBuffer
buffer_size=0
eventq_index=0
ordered=false
randomization=false
recycle_latency=10

[system.ruby.l1_cntrl1.requestFromL1Cache]
type=MessageBuffer
buffer_size=0
eventq_index=0
ordered=false
randomization=false
recycle_latency=10
master=system.ruby.network.slave[2]

[system.ruby.l1_cntrl1.requestToL1Cache]
type=MessageBuffer
buffer_size=0
eventq_index=0
ordered=false
randomization=false
recycle_latency=10
slave=system.ruby.network.master[2]

[system.ruby.l1_cntrl1.responseFromL1Cache]
type=MessageBuffer
buffer_size=0
eventq_index=0
ordered=false
randomization=false
recycle_latency=10
master=system.ruby.network.slave[3]

[system.ruby.l1_cntrl1.responseToL1Cache]
type=MessageBuffer
buffer_size=0
eventq_index=0
ordered=false
randomization=false
recycle_latency=10
slave=system.ruby.network.master[3]

[system.ruby.l1_cntrl1.sequencer]
type=RubySequencer
clk_domain=system.cpu_clk_domain
dcache=system.ruby.l1_cntrl1.L1Dcache
dcache_hit_latency=1
deadlock_threshold=1000000
eventq_index=0
icache=system.ruby.l1_cntrl1.L1Icache
icache_hit_latency=1
max_outstanding_requests=16
ruby_system=system.ruby
support_data_reqs=true
support_inst_reqs=true
system=system
using_network_tester=false
using_ruby_tester=false
version=1
slave=system.cpu1.port

[system.ruby.l1_cntrl1.triggerQueue]
type=MessageBuffer
buffer_size=0
eventq_index=0
ordered=true
randomization=false
recycle_latency=10

[system.ruby.l1_cntrl2]
type=L1Cache_Controller
children=L1Dcache L1Icache mandatoryQueue requestFromL1Cache requestToL1Cache responseFromL1Cache responseToL1Cache sequencer triggerQueue
L1Dcache=system.ruby.l1_cntrl2.L1Dcache
L1Icache=system.ruby.l1_cntrl2.L1Icache
buffer_size=0
clk_domain=system.cpu_clk_domain
cluster_id=0
eventq_index=0
l2_select_num_bits=0
mandatoryQueue=system.ruby.l1_cntrl2.mandatoryQueue
number_of_TBEs=256
recycle_latency=10
requestFromL1Cache=system.ruby.l1_cntrl2.requestFromL1Cache
requestToL1Cache=system.ruby.l1_cntrl2.requestToL1Cache
request_latency=2
responseFromL1Cache=system.ruby.l1_cntrl2.responseFromL1Cache
responseToL1Cache=system.ruby.l1_cntrl2.responseToL1Cache
ruby_system=system.ruby
send_evictions=false
sequencer=system.ruby.l1_cntrl2.sequencer
system=system
transitions_per_cycle=32
triggerQueue=system.ruby.l1_cntrl2.triggerQueue
use_timeout_latency=50
version=2

[system.ruby.l1_cntrl2.L1Dcache]
type=RubyCache
children=replacement_policy
assoc=2
dataAccessLatency=1
dataArrayBanks=1
eventq_index=0
is_icache=false
replacement_policy=system.ruby.l1_cntrl2.L1Dcache.replacement_policy
resourceStalls=false
ruby_system=system.ruby
size=256
start_index_bit=6
tagAccessLatency=1
tagArrayBanks=1

[system.ruby.l1_cntrl2.L1Dcache.replacement_policy]
type=PseudoLRUReplacementPolicy
assoc=2
block_size=64
eventq_index=0
size=256

[system.ruby.l1_cntrl2.L1Icache]
type=RubyCache
children=replacement_policy
assoc=2
dataAccessLatency=1
dataArrayBanks=1
eventq_index=0
is_icache=true
replacement_policy=system.ruby.l1_cntrl2.L1Icache.replacement_policy
resourceStalls=false
ruby_system=system.ruby
size=256
start_index_bit=6
tagAccessLatency=1
tagArrayBanks=1

[system.ruby.l1_cntrl2.L1Icache.replacement_policy]
type=PseudoLRUReplacementPolicy
assoc=2
block_size=64
eventq_index=0
size=256

[system.ruby.l1_cntrl2.mandatoryQueue]
type=MessageBuffer
buffer_size=0
eventq_index=0
ordered=false
randomization=false
recycle_latency=10

[system.ruby.l1_cntrl2.requestFromL1Cache]
type=MessageBuffer
buffer_size=0
eventq_index=0
ordered=false
randomization=false
recycle_latency=10
master=system.ruby.network.slave[4]

[system.ruby.l1_cntrl2.requestToL1Cache]
type=MessageBuffer
buffer_size=0
eventq_index=0
ordered=false
randomization=false
recycle_latency=10
slave=system.ruby.network.master[4]

[system.ruby.l1_cntrl2.responseFromL1Cache]
type=MessageBuffer
buffer_size=0
eventq_index=0
ordered=false
randomization=false
recycle_latency=10
master=system.ruby.network.slave[5]

[system.ruby.l1_cntrl2.responseToL1Cache]
type=MessageBuffer
buffer_size=0
eventq_index=0
ordered=false
randomization=false
recycle_latency=10
slave=system.ruby.network.master[5]

[system.ruby.l1_cntrl2.sequencer]
type=RubySequencer
clk_domain=system.cpu_clk_domain
dcache=system.ruby.l1_cntrl2.L1Dcache
dcache_hit_latency=1
deadlock_threshold=1000000
eventq_index=0
icache=system.ruby.l1_cntrl2.L1Icache
icache_hit_latency=1
max_outstanding_requests=16
ruby_system=system.ruby
support_data_reqs=true
support_inst_reqs=true
system=system
using_network_tester=false
using_ruby_tester=false
version=2
slave=system.cpu2.port

[system.ruby.l1_cntrl2.triggerQueue]
type=MessageBuffer
buffer_size=0
eventq_index=0
ordered=true
randomization=false
recycle_latency=10

[system.ruby.l1_cntrl3]
type=L1Cache_Controller
children=L1Dcache L1Icache mandatoryQueue requestFromL1Cache requestToL1Cache responseFromL1Cache responseToL1Cache sequencer triggerQueue
L1Dcache=system.ruby.l1_cntrl3.L1Dcache
L1Icache=system.ruby.l1_cntrl3.L1Icache
buffer_size=0
clk_domain=system.cpu_clk_domain
cluster_id=0
eventq_index=0
l2_select_num_bits=0
mandatoryQueue=system.ruby.l1_cntrl3.mandatoryQueue
number_of_TBEs=256
recycle_latency=10
requestFromL1Cache=system.ruby.l1_cntrl3.requestFromL1Cache
requestToL1Cache=system.ruby.l1_cntrl3.requestToL1Cache
request_latency=2
responseFromL1Cache=system.ruby.l1_cntrl3.responseFromL1Cache
responseToL1Cache=system.ruby.l1_cntrl3.responseToL1Cache
ruby_system=system.ruby
send_evictions=false
sequencer=system.ruby.l1_cntrl3.sequencer
system=system
transitions_per_cycle=32
triggerQueue=system.ruby.l1_cntrl3.triggerQueue
use_timeout_latency=50
version=3

[system.ruby.l1_cntrl3.L1Dcache]
type=RubyCache
children=replacement_policy
assoc=2
dataAccessLatency=1
dataArrayBanks=1
eventq_index=0
is_icache=false
replacement_policy=system.ruby.l1_cntrl3.L1Dcache.replacement_policy
resourceStalls=false
ruby_system=system.ruby
size=256
start_index_bit=6
tagAccessLatency=1
tagArrayBanks=1

[system.ruby.l1_cntrl3.L1Dcache.replacement_policy]
type=PseudoLRUReplacementPolicy
assoc=2
block_size=64
eventq_index=0
size=256

[system.ruby.l1_cntrl3.L1Icache]
type=RubyCache
children=replacement_policy
assoc=2
dataAccessLatency=1
dataArrayBanks=1
eventq_index=0
is_icache=true
replacement_policy=system.ruby.l1_cntrl3.L1Icache.replacement_policy
resourceStalls=false
ruby_system=system.ruby
size=256
start_index_bit=6
tagAccessLatency=1
tagArrayBanks=1

[system.ruby.l1_cntrl3.L1Icache.replacement_policy]
type=PseudoLRUReplacementPolicy
assoc=2
block_size=64
eventq_index=0
size=256

[system.ruby.l1_cntrl3.mandatoryQueue]
type=MessageBuffer
buffer_size=0
eventq_index=0
ordered=false
randomization=false
recycle_latency=10

[system.ruby.l1_cntrl3.requestFromL1Cache]
type=MessageBuffer
buffer_size=0
eventq_index=0
ordered=false
randomization=false
recycle_latency=10
master=system.ruby.network.slave[6]

[system.ruby.l1_cntrl3.requestToL1Cache]
type=MessageBuffer
buffer_size=0
eventq_index=0
ordered=false
randomization=false
recycle_latency=10
slave=system.ruby.network.master[6]

[system.ruby.l1_cntrl3.responseFromL1Cache]
type=MessageBuffer
buffer_size=0
eventq_index=0
ordered=false
randomization=false
recycle_latency=10
master=system.ruby.network.slave[7]

[system.ruby.l1_cntrl3.responseToL1Cache]
type=MessageBuffer
buffer_size=0
eventq_index=0
ordered=false
randomization=false
recycle_latency=10
slave=system.ruby.network.master[7]

[system.ruby.l1_cntrl3.sequencer]
type=RubySequencer
clk_domain=system.cpu_clk_domain
dcache=system.ruby.l1_cntrl3.L1Dcache
dcache_hit_latency=1
deadlock_threshold=1000000
eventq_index=0
icache=system.ruby.l1_cntrl3.L1Icache
icache_hit_latency=1
max_outstanding_requests=16
ruby_system=system.ruby
support_data_reqs=true
support_inst_reqs=true
system=system
using_network_tester=false
using_ruby_tester=false
version=3
slave=system.cpu3.port

[system.ruby.l1_cntrl3.triggerQueue]
type=MessageBuffer
buffer_size=0
eventq_index=0
ordered=true
randomization=false
recycle_latency=10

[system.ruby.l1_cntrl4]
type=L1Cache_Controller
children=L1Dcache L1Icache mandatoryQueue requestFromL1Cache requestToL1Cache responseFromL1Cache responseToL1Cache sequencer triggerQueue
L1Dcache=system.ruby.l1_cntrl4.L1Dcache
L1Icache=system.ruby.l1_cntrl4.L1Icache
buffer_size=0
clk_domain=system.cpu_clk_domain
cluster_id=0
eventq_index=0
l2_select_num_bits=0
mandatoryQueue=system.ruby.l1_cntrl4.mandatoryQueue
number_of_TBEs=256
recycle_latency=10
requestFromL1Cache=system.ruby.l1_cntrl4.requestFromL1Cache
requestToL1Cache=system.ruby.l1_cntrl4.requestToL1Cache
request_latency=2
responseFromL1Cache=system.ruby.l1_cntrl4.responseFromL1Cache
responseToL1Cache=system.ruby.l1_cntrl4.responseToL1Cache
ruby_system=system.ruby
send_evictions=false
sequencer=system.ruby.l1_cntrl4.sequencer
system=system
transitions_per_cycle=32
triggerQueue=system.ruby.l1_cntrl4.triggerQueue
use_timeout_latency=50
version=4

[system.ruby.l1_cntrl4.L1Dcache]
type=RubyCache
children=replacement_policy
assoc=2
dataAccessLatency=1
dataArrayBanks=1
eventq_index=0
is_icache=false
replacement_policy=system.ruby.l1_cntrl4.L1Dcache.replacement_policy
resourceStalls=false
ruby_system=system.ruby
size=256
start_index_bit=6
tagAccessLatency=1
tagArrayBanks=1

[system.ruby.l1_cntrl4.L1Dcache.replacement_policy]
type=PseudoLRUReplacementPolicy
assoc=2
block_size=64
eventq_index=0
size=256

[system.ruby.l1_cntrl4.L1Icache]
type=RubyCache
children=replacement_policy
assoc=2
dataAccessLatency=1
dataArrayBanks=1
eventq_index=0
is_icache=true
replacement_policy=system.ruby.l1_cntrl4.L1Icache.replacement_policy
resourceStalls=false
ruby_system=system.ruby
size=256
start_index_bit=6
tagAccessLatency=1
tagArrayBanks=1

[system.ruby.l1_cntrl4.L1Icache.replacement_policy]
type=PseudoLRUReplacementPolicy
assoc=2
block_size=64
eventq_index=0
size=256

[system.ruby.l1_cntrl4.mandatoryQueue]
type=MessageBuffer
buffer_size=0
eventq_index=0
ordered=false
randomization=false
recycle_latency=10

[system.ruby.l1_cntrl4.requestFromL1Cache]
type=MessageBuffer
buffer_size=0
eventq_index=0
ordered=false
randomization=false
recycle_latency=10
master=system.ruby.network.slave[8]

[system.ruby.l1_cntrl4.requestToL1Cache]
type=MessageBuffer
buffer_size=0
eventq_index=0
ordered=false
randomization=false
recycle_latency=10
slave=system.ruby.network.master[8]

[system.ruby.l1_cntrl4.responseFromL1Cache]
type=MessageBuffer
buffer_size=0
eventq_index=0
ordered=false
randomization=false
recycle_latency=10
master=system.ruby.network.slave[9]

[system.ruby.l1_cntrl4.responseToL1Cache]
type=MessageBuffer
buffer_size=0
eventq_index=0
ordered=false
randomization=false
recycle_latency=10
slave=system.ruby.network.master[9]

[system.ruby.l1_cntrl4.sequencer]
type=RubySequencer
clk_domain=system.cpu_clk_domain
dcache=system.ruby.l1_cntrl4.L1Dcache
dcache_hit_latency=1
deadlock_threshold=1000000
eventq_index=0
icache=system.ruby.l1_cntrl4.L1Icache
icache_hit_latency=1
max_outstanding_requests=16
ruby_system=system.ruby
support_data_reqs=true
support_inst_reqs=true
system=system
using_network_tester=false
using_ruby_tester=false
version=4
slave=system.cpu4.port

[system.ruby.l1_cntrl4.triggerQueue]
type=MessageBuffer
buffer_size=0
eventq_index=0
ordered=true
randomization=false
recycle_latency=10

[system.ruby.l1_cntrl5]
type=L1Cache_Controller
children=L1Dcache L1Icache mandatoryQueue requestFromL1Cache requestToL1Cache responseFromL1Cache responseToL1Cache sequencer triggerQueue
L1Dcache=system.ruby.l1_cntrl5.L1Dcache
L1Icache=system.ruby.l1_cntrl5.L1Icache
buffer_size=0
clk_domain=system.cpu_clk_domain
cluster_id=0
eventq_index=0
l2_select_num_bits=0
mandatoryQueue=system.ruby.l1_cntrl5.mandatoryQueue
number_of_TBEs=256
recycle_latency=10
requestFromL1Cache=system.ruby.l1_cntrl5.requestFromL1Cache
requestToL1Cache=system.ruby.l1_cntrl5.requestToL1Cache
request_latency=2
responseFromL1Cache=system.ruby.l1_cntrl5.responseFromL1Cache
responseToL1Cache=system.ruby.l1_cntrl5.responseToL1Cache
ruby_system=system.ruby
send_evictions=false
sequencer=system.ruby.l1_cntrl5.sequencer
system=system
transitions_per_cycle=32
triggerQueue=system.ruby.l1_cntrl5.triggerQueue
use_timeout_latency=50
version=5

[system.ruby.l1_cntrl5.L1Dcache]
type=RubyCache
children=replacement_policy
assoc=2
dataAccessLatency=1
dataArrayBanks=1
eventq_index=0
is_icache=false
replacement_policy=system.ruby.l1_cntrl5.L1Dcache.replacement_policy
resourceStalls=false
ruby_system=system.ruby
size=256
start_index_bit=6
tagAccessLatency=1
tagArrayBanks=1

[system.ruby.l1_cntrl5.L1Dcache.replacement_policy]
type=PseudoLRUReplacementPolicy
assoc=2
block_size=64
eventq_index=0
size=256

[system.ruby.l1_cntrl5.L1Icache]
type=RubyCache
children=replacement_policy
assoc=2
dataAccessLatency=1
dataArrayBanks=1
eventq_index=0
is_icache=true
replacement_policy=system.ruby.l1_cntrl5.L1Icache.replacement_policy
resourceStalls=false
ruby_system=system.ruby
size=256
start_index_bit=6
tagAccessLatency=1
tagArrayBanks=1

[system.ruby.l1_cntrl5.L1Icache.replacement_policy]
type=PseudoLRUReplacementPolicy
assoc=2
block_size=64
eventq_index=0
size=256

[system.ruby.l1_cntrl5.mandatoryQueue]
type=MessageBuffer
buffer_size=0
eventq_index=0
ordered=false
randomization=false
recycle_latency=10

[system.ruby.l1_cntrl5.requestFromL1Cache]
type=MessageBuffer
buffer_size=0
eventq_index=0
ordered=false
randomization=false
recycle_latency=10
master=system.ruby.network.slave[10]

[system.ruby.l1_cntrl5.requestToL1Cache]
type=MessageBuffer
buffer_size=0
eventq_index=0
ordered=false
randomization=false
recycle_latency=10
slave=system.ruby.network.master[10]

[system.ruby.l1_cntrl5.responseFromL1Cache]
type=MessageBuffer
buffer_size=0
eventq_index=0
ordered=false
randomization=false
recycle_latency=10
master=system.ruby.network.slave[11]

[system.ruby.l1_cntrl5.responseToL1Cache]
type=MessageBuffer
buffer_size=0
eventq_index=0
ordered=false
randomization=false
recycle_latency=10
slave=system.ruby.network.master[11]

[system.ruby.l1_cntrl5.sequencer]
type=RubySequencer
clk_domain=system.cpu_clk_domain
dcache=system.ruby.l1_cntrl5.L1Dcache
dcache_hit_latency=1
deadlock_threshold=1000000
eventq_index=0
icache=system.ruby.l1_cntrl5.L1Icache
icache_hit_latency=1
max_outstanding_requests=16
ruby_system=system.ruby
support_data_reqs=true
support_inst_reqs=true
system=system
using_network_tester=false
using_ruby_tester=false
version=5
slave=system.cpu5.port

[system.ruby.l1_cntrl5.triggerQueue]
type=MessageBuffer
buffer_size=0
eventq_index=0
ordered=true
randomization=false
recycle_latency=10

[system.ruby.l1_cntrl6]
type=L1Cache_Controller
children=L1Dcache L1Icache mandatoryQueue requestFromL1Cache requestToL1Cache responseFromL1Cache responseToL1Cache sequencer triggerQueue
L1Dcache=system.ruby.l1_cntrl6.L1Dcache
L1Icache=system.ruby.l1_cntrl6.L1Icache
buffer_size=0
clk_domain=system.cpu_clk_domain
cluster_id=0
eventq_index=0
l2_select_num_bits=0
mandatoryQueue=system.ruby.l1_cntrl6.mandatoryQueue
number_of_TBEs=256
recycle_latency=10
requestFromL1Cache=system.ruby.l1_cntrl6.requestFromL1Cache
requestToL1Cache=system.ruby.l1_cntrl6.requestToL1Cache
request_latency=2
responseFromL1Cache=system.ruby.l1_cntrl6.responseFromL1Cache
responseToL1Cache=system.ruby.l1_cntrl6.responseToL1Cache
ruby_system=system.ruby
send_evictions=false
sequencer=system.ruby.l1_cntrl6.sequencer
system=system
transitions_per_cycle=32
triggerQueue=system.ruby.l1_cntrl6.triggerQueue
use_timeout_latency=50
version=6

[system.ruby.l1_cntrl6.L1Dcache]
type=RubyCache
children=replacement_policy
assoc=2
dataAccessLatency=1
dataArrayBanks=1
eventq_index=0
is_icache=false
replacement_policy=system.ruby.l1_cntrl6.L1Dcache.replacement_policy
resourceStalls=false
ruby_system=system.ruby
size=256
start_index_bit=6
tagAccessLatency=1
tagArrayBanks=1

[system.ruby.l1_cntrl6.L1Dcache.replacement_policy]
type=PseudoLRUReplacementPolicy
assoc=2
block_size=64
eventq_index=0
size=256

[system.ruby.l1_cntrl6.L1Icache]
type=RubyCache
children=replacement_policy
assoc=2
dataAccessLatency=1
dataArrayBanks=1
eventq_index=0
is_icache=true
replacement_policy=system.ruby.l1_cntrl6.L1Icache.replacement_policy
resourceStalls=false
ruby_system=system.ruby
size=256
start_index_bit=6
tagAccessLatency=1
tagArrayBanks=1

[system.ruby.l1_cntrl6.L1Icache.replacement_policy]
type=PseudoLRUReplacementPolicy
assoc=2
block_size=64
eventq_index=0
size=256

[system.ruby.l1_cntrl6.mandatoryQueue]
type=MessageBuffer
buffer_size=0
eventq_index=0
ordered=false
randomization=false
recycle_latency=10

[system.ruby.l1_cntrl6.requestFromL1Cache]
type=MessageBuffer
buffer_size=0
eventq_index=0
ordered=false
randomization=false
recycle_latency=10
master=system.ruby.network.slave[12]

[system.ruby.l1_cntrl6.requestToL1Cache]
type=MessageBuffer
buffer_size=0
eventq_index=0
ordered=false
randomization=false
recycle_latency=10
slave=system.ruby.network.master[12]

[system.ruby.l1_cntrl6.responseFromL1Cache]
type=MessageBuffer
buffer_size=0
eventq_index=0
ordered=false
randomization=false
recycle_latency=10
master=system.ruby.network.slave[13]

[system.ruby.l1_cntrl6.responseToL1Cache]
type=MessageBuffer
buffer_size=0
eventq_index=0
ordered=false
randomization=false
recycle_latency=10
slave=system.ruby.network.master[13]

[system.ruby.l1_cntrl6.sequencer]
type=RubySequencer
clk_domain=system.cpu_clk_domain
dcache=system.ruby.l1_cntrl6.L1Dcache
dcache_hit_latency=1
deadlock_threshold=1000000
eventq_index=0
icache=system.ruby.l1_cntrl6.L1Icache
icache_hit_latency=1
max_outstanding_requests=16
ruby_system=system.ruby
support_data_reqs=true
support_inst_reqs=true
system=system
using_network_tester=false
using_ruby_tester=false
version=6
slave=system.cpu6.port

[system.ruby.l1_cntrl6.triggerQueue]