[root]
type=Root
children=system
eventq_index=0
full_system=false
sim_quantum=0
time_sync_enable=false
time_sync_period=100000000
time_sync_spin_threshold=100000

[system]
type=System
children=clk_domain cp_cntrl0 cpu dir_cntrl0 dvfs_handler mem_ctrls ruby sqc_cntrl0 sqc_cntrl1 sys_port_proxy tcc_cntrl0 tccdir_cntrl0 tcp_cntrl0 tcp_cntrl1 tcp_cntrl2 tcp_cntrl3 tcp_cntrl4 tcp_cntrl5 tcp_cntrl6 tcp_cntrl7 voltage_domain
boot_osflags=a
cache_line_size=64
clk_domain=system.clk_domain
default_p_state=UNDEFINED
eventq_index=0
exit_on_work_items=false
init_param=0
kernel=
kernel_addr_check=true
load_addr_mask=1099511627775
load_offset=0
mem_mode=timing
mem_ranges=0:268435455:0:0:0:0
memories=system.mem_ctrls
mmap_using_noreserve=false
multi_thread=false
num_work_ids=16
p_state_clk_gate_bins=20
p_state_clk_gate_max=1000000000
p_state_clk_gate_min=1
power_model=Null
readfile=
symbolfile=
thermal_components=
thermal_model=Null
work_begin_ckpt_count=0
work_begin_cpu_id_exit=-1
work_begin_exit_count=0
work_cpus_ckpt_count=0
work_end_ckpt_count=0
work_end_exit_count=0
work_item_id=-1
system_port=system.sys_port_proxy.slave[0]

[system.clk_domain]
type=SrcClockDomain
clock=1
domain_id=-1
eventq_index=0
init_perf_level=0
voltage_domain=system.voltage_domain

[system.cp_cntrl0]
type=CorePair_Controller
children=L1D0cache L1D1cache L1Icache L2cache mandatoryQueue probeToCore requestFromCore responseFromCore responseToCore sequencer sequencer1 triggerQueue unblockFromCore
L1D0cache=system.cp_cntrl0.L1D0cache
L1D1cache=system.cp_cntrl0.L1D1cache
L1Icache=system.cp_cntrl0.L1Icache
L2cache=system.cp_cntrl0.L2cache
buffer_size=0
clk_domain=system.clk_domain
cluster_id=0
default_p_state=UNDEFINED
eventq_index=0
issue_latency=15
l2_hit_latency=18
mandatoryQueue=system.cp_cntrl0.mandatoryQueue
number_of_TBEs=256
p_state_clk_gate_bins=20
p_state_clk_gate_max=1000000000
p_state_clk_gate_min=1
power_model=Null
probeToCore=system.cp_cntrl0.probeToCore
recycle_latency=10
requestFromCore=system.cp_cntrl0.requestFromCore
responseFromCore=system.cp_cntrl0.responseFromCore
responseToCore=system.cp_cntrl0.responseToCore
ruby_system=system.ruby
send_evictions=true
sequencer=system.cp_cntrl0.sequencer
sequencer1=system.cp_cntrl0.sequencer1
system=system
transitions_per_cycle=32
triggerQueue=system.cp_cntrl0.triggerQueue
unblockFromCore=system.cp_cntrl0.unblockFromCore
version=0

[system.cp_cntrl0.L1D0cache]
type=RubyCache
children=replacement_policy
assoc=2
block_size=0
dataAccessLatency=1
dataArrayBanks=1
eventq_index=0
is_icache=false
replacement_policy=system.cp_cntrl0.L1D0cache.replacement_policy
resourceStalls=false
ruby_system=system.ruby
size=256
start_index_bit=6
tagAccessLatency=1
tagArrayBanks=1

[system.cp_cntrl0.L1D0cache.replacement_policy]
type=PseudoLRUReplacementPolicy
assoc=2
block_size=64
eventq_index=0
size=256

[system.cp_cntrl0.L1D1cache]
type=RubyCache
children=replacement_policy
assoc=2
block_size=0
dataAccessLatency=1
dataArrayBanks=1
eventq_index=0
is_icache=false
replacement_policy=system.cp_cntrl0.L1D1cache.replacement_policy
resourceStalls=false
ruby_system=system.ruby
size=256
start_index_bit=6
tagAccessLatency=1
tagArrayBanks=1

[system.cp_cntrl0.L1D1cache.replacement_policy]
type=PseudoLRUReplacementPolicy
assoc=2
block_size=64
eventq_index=0
size=256

[system.cp_cntrl0.L1Icache]
type=RubyCache
children=replacement_policy
assoc=2
block_size=0
dataAccessLatency=1
dataArrayBanks=1
eventq_index=0
is_icache=false
replacement_policy=system.cp_cntrl0.L1Icache.replacement_policy
resourceStalls=false
ruby_system=system.ruby
size=256
start_index_bit=6
tagAccessLatency=1
tagArrayBanks=1

[system.cp_cntrl0.L1Icache.replacement_policy]
type=PseudoLRUReplacementPolicy
assoc=2
block_size=64
eventq_index=0
size=256

[system.cp_cntrl0.L2cache]
type=RubyCache
children=replacement_policy
assoc=2
block_size=0
dataAccessLatency=1
dataArrayBanks=1
eventq_index=0
is_icache=false
replacement_policy=system.cp_cntrl0.L2cache.replacement_policy
resourceStalls=false
ruby_system=system.ruby
size=512
start_index_bit=6
tagAccessLatency=1
tagArrayBanks=1

[system.cp_cntrl0.L2cache.replacement_policy]
type=PseudoLRUReplacementPolicy
assoc=2
block_size=64
eventq_index=0
size=512

[system.cp_cntrl0.mandatoryQueue]
type=MessageBuffer
buffer_size=0
eventq_index=0
ordered=false
randomization=false

[system.cp_cntrl0.probeToCore]
type=MessageBuffer
buffer_size=0
eventq_index=0
ordered=false
randomization=false
slave=system.ruby.network.master[3]

[system.cp_cntrl0.requestFromCore]
type=MessageBuffer
buffer_size=0
eventq_index=0
ordered=false
randomization=false
master=system.ruby.network.slave[2]

[system.cp_cntrl0.responseFromCore]
type=MessageBuffer
buffer_size=0
eventq_index=0
ordered=false
randomization=false
master=system.ruby.network.slave[3]

[system.cp_cntrl0.responseToCore]
type=MessageBuffer
buffer_size=0
eventq_index=0
ordered=false
randomization=false
slave=system.ruby.network.master[4]

[system.cp_cntrl0.sequencer]
type=RubySequencer
clk_domain=system.clk_domain
coreid=0
dcache=system.cp_cntrl0.L1D0cache
dcache_hit_latency=2
deadlock_threshold=500000
default_p_state=UNDEFINED
eventq_index=0
garnet_standalone=false
icache=system.cp_cntrl0.L1Icache
icache_hit_latency=2
is_cpu_sequencer=true
max_outstanding_requests=16
no_retry_on_stall=true
p_state_clk_gate_bins=20
p_state_clk_gate_max=1000000000
p_state_clk_gate_min=1
power_model=Null
ruby_system=system.ruby
support_data_reqs=true
support_inst_reqs=true
system=system
using_ruby_tester=true
version=0
slave=system.cpu.cpuInstDataPort[0]

[system.cp_cntrl0.sequencer1]
type=RubySequencer
clk_domain=system.clk_domain
coreid=1
dcache=system.cp_cntrl0.L1D1cache
dcache_hit_latency=2
deadlock_threshold=500000
default_p_state=UNDEFINED
eventq_index=0
garnet_standalone=false
icache=system.cp_cntrl0.L1Icache
icache_hit_latency=2
is_cpu_sequencer=true
max_outstanding_requests=16
no_retry_on_stall=true
p_state_clk_gate_bins=20
p_state_clk_gate_max=1000000000
p_state_clk_gate_min=1
power_model=Null
ruby_system=system.ruby
support_data_reqs=true
support_inst_reqs=true
system=system
using_ruby_tester=true
version=1
slave=system.cpu.cpuInstDataPort[1]

[system.cp_cntrl0.triggerQueue]
type=MessageBuffer
buffer_size=0
eventq_index=0
ordered=true
randomization=false

[system.cp_cntrl0.unblockFromCore]
type=MessageBuffer
buffer_size=0
eventq_index=0
ordered=false
randomization=false
master=system.ruby.network.slave[4]

[system.cpu]
type=RubyTester
check_flush=false
checks_to_complete=100
clk_domain=system.clk_domain
deadlock_threshold=50000
default_p_state=UNDEFINED
eventq_index=0
num_cpus=12
p_state_clk_gate_bins=20
p_state_clk_gate_max=1000000000
p_state_clk_gate_min=1
power_model=Null
system=system
wakeup_frequency=10
cpuDataPort=system.tcp_cntrl0.coalescer.slave[0] system.tcp_cntrl1.coalescer.slave[0] system.tcp_cntrl2.coalescer.slave[0] system.tcp_cntrl3.coalescer.slave[0] system.tcp_cntrl4.coalescer.slave[0] system.tcp_cntrl5.coalescer.slave[0] system.tcp_cntrl6.coalescer.slave[0] system.tcp_cntrl7.coalescer.slave[0]
cpuInstDataPort=system.cp_cntrl0.sequencer.slave[0] system.cp_cntrl0.sequencer1.slave[0]
cpuInstPort=system.sqc_cntrl0.sequencer.slave[0] system.sqc_cntrl1.sequencer.slave[0]

[system.dir_cntrl0]
type=Directory_Controller
children=L3CacheMemory L3triggerQueue directory probeToCore requestFromCores responseFromCores responseFromMemory responseToCore triggerQueue unblockFromCores
CPUonly=false
L3CacheMemory=system.dir_cntrl0.L3CacheMemory
L3triggerQueue=system.dir_cntrl0.L3triggerQueue
TCC_select_num_bits=0
buffer_size=0
clk_domain=system.clk_domain
cluster_id=0
default_p_state=UNDEFINED
directory=system.dir_cntrl0.directory
eventq_index=0
l3_hit_latency=15
noTCCdir=false
number_of_TBEs=20480
p_state_clk_gate_bins=20
p_state_clk_gate_max=1000000000
p_state_clk_gate_min=1
power_model=Null
probeToCore=system.dir_cntrl0.probeToCore
recycle_latency=10
requestFromCores=system.dir_cntrl0.requestFromCores
responseFromCores=system.dir_cntrl0.responseFromCores
responseFromMemory=system.dir_cntrl0.responseFromMemory
responseToCore=system.dir_cntrl0.responseToCore
response_latency=30
ruby_system=system.ruby
system=system
to_memory_controller_latency=1
transitions_per_cycle=32
triggerQueue=system.dir_cntrl0.triggerQueue
unblockFromCores=system.dir_cntrl0.unblockFromCores
useL3OnWT=false
version=0
memory=system.mem_ctrls.port

[system.dir_cntrl0.L3CacheMemory]
type=RubyCache
children=replacement_policy
assoc=8
block_size=0
dataAccessLatency=20
dataArrayBanks=256.0
eventq_index=0
is_icache=false
replacement_policy=system.dir_cntrl0.L3CacheMemory.replacement_policy
resourceStalls=true
ruby_system=system.ruby
size=1024
start_index_bit=6
tagAccessLatency=15
tagArrayBanks=256.0

[system.dir_cntrl0.L3CacheMemory.replacement_policy]
type=PseudoLRUReplacementPolicy
assoc=8
block_size=64
eventq_index=0
size=1024

[system.dir_cntrl0.L3triggerQueue]
type=MessageBuffer
buffer_size=0
eventq_index=0
ordered=true
randomization=false

[system.dir_cntrl0.directory]
type=RubyDirectoryMemory
eventq_index=0
numa_high_bit=5
size=536870912
version=0

[system.dir_cntrl0.probeToCore]
type=MessageBuffer
buffer_size=0
eventq_index=0
ordered=false
randomization=false
master=system.ruby.network.slave[0]

[system.dir_cntrl0.requestFromCores]
type=MessageBuffer
buffer_size=0
eventq_index=0
ordered=true
randomization=false
slave=system.ruby.network.master[0]

[system.dir_cntrl0.responseFromCores]
type=MessageBuffer
buffer_size=0
eventq_index=0
ordered=false
randomization=false
slave=system.ruby.network.master[1]

[system.dir_cntrl0.responseFromMemory]
type=MessageBuffer
buffer_size=0
eventq_index=0
ordered=false
randomization=false

[system.dir_cntrl0.responseToCore]
type=MessageBuffer
buffer_size=0
eventq_index=0
ordered=false
randomization=false
master=system.ruby.network.slave[1]

[system.dir_cntrl0.triggerQueue]
type=MessageBuffer
buffer_size=0
eventq_index=0
ordered=true
randomization=false

[system.dir_cntrl0.unblockFromCores]
type=MessageBuffer
buffer_size=0
eventq_index=0
ordered=false
randomization=false
slave=system.ruby.network.master[2]

[system.dvfs_handler]
type=DVFSHandler
domains=
enable=false
eventq_index=0
sys_clk_domain=system.clk_domain
transition_latency=100000

[system.mem_ctrls]
type=DRAMCtrl
IDD0=0.055000
IDD02=0.000000
IDD2N=0.032000
IDD2N2=0.000000
IDD2P0=0.000000
IDD2P02=0.000000
IDD2P1=0.032000
IDD2P12=0.000000
IDD3N=0.038000
IDD3N2=0.000000
IDD3P0=0.000000
IDD3P02=0.000000
IDD3P1=0.038000
IDD3P12=0.000000
IDD4R=0.157000
IDD4R2=0.000000
IDD4W=0.125000
IDD4W2=0.000000
IDD5=0.235000
IDD52=0.000000
IDD6=0.020000
IDD62=0.000000
VDD=1.500000
VDD2=0.000000
activation_limit=4
addr_mapping=RoRaBaCoCh
bank_groups_per_rank=0
banks_per_rank=8
burst_length=8
channels=1
clk_domain=system.clk_domain
conf_table_reported=true
default_p_state=UNDEFINED
device_bus_width=8
device_rowbuffer_size=1024
device_size=536870912
devices_per_rank=8
dll=true
eventq_index=0
in_addr_map=true
kvm_map=true
max_accesses_per_row=16
mem_sched_policy=frfcfs
min_writes_per_switch=16
null=false
p_state_clk_gate_bins=20
p_state_clk_gate_max=1000000000
p_state_clk_gate_min=1
page_policy=open_adaptive
power_model=Null
range=0:268435455:5:19:0:0
ranks_per_channel=2
read_buffer_size=32
static_backend_latency=10
static_frontend_latency=10
tBURST=5
tCCD_L=0
tCK=1
tCL=14
tCS=3
tRAS=35
tRCD=14
tREFI=7800
tRFC=260
tRP=14
tRRD=6
tRRD_L=0
tRTP=8
tRTW=3
tWR=15
tWTR=8
tXAW=30
tXP=6
tXPDLL=0
tXS=270
tXSDLL=0
write_buffer_size=64
write_high_thresh_perc=85
write_low_thresh_perc=50
port=system.dir_cntrl0.memory

[system.ruby]
type=RubySystem
children=clk_domain network
access_backing_store=false
all_instructions=false
block_size_bytes=64
clk_domain=system.ruby.clk_domain
default_p_state=UNDEFINED
eventq_index=0
hot_lines=false
memory_size_bits=48
num_of_sequencers=12
number_of_virtual_networks=10
p_state_clk_gate_bins=20
p_state_clk_gate_max=1000000000
p_state_clk_gate_min=1
phys_mem=Null
power_model=Null
randomization=true

[system.ruby.clk_domain]
type=SrcClockDomain
clock=1
domain_id=-1
eventq_index=0
init_perf_level=0
voltage_domain=system.voltage_domain

[system.ruby.network]
type=SimpleNetwork
children=ext_links00 ext_links01 ext_links02 ext_links03 ext_links04 ext_links05 ext_links06 ext_links07 ext_links08 ext_links09 ext_links10 ext_links11 ext_links12 ext_links13 int_link_buffers00 int_link_buffers01 int_link_buffers02 int_link_buffers03 int_link_buffers04 int_link_buffers05 int_link_buffers06 int_link_buffers07 int_link_buffers08 int_link_buffers09 int_link_buffers10 int_link_buffers11 int_link_buffers12 int_link_buffers13 int_link_buffers14 int_link_buffers15 int_link_buffers16 int_link_buffers17 int_link_buffers18 int_link_buffers19 int_link_buffers20 int_link_buffers21 int_link_buffers22 int_link_buffers23 int_link_buffers24 int_link_buffers25 int_link_buffers26 int_link_buffers27 int_link_buffers28 int_link_buffers29 int_link_buffers30 int_link_buffers31 int_link_buffers32 int_link_buffers33 int_link_buffers34 int_link_buffers35 int_link_buffers36 int_link_buffers37 int_link_buffers38 int_link_buffers39 int_link_buffers40 int_link_buffers41 int_link_buffers42 int_link_buffers43 int_link_buffers44 int_link_buffers45 int_link_buffers46 int_link_buffers47 int_link_buffers48 int_link_buffers49 int_link_buffers50 int_link_buffers51 int_link_buffers52 int_link_buffers53 int_link_buffers54 int_link_buffers55 int_link_buffers56 int_link_buffers57 int_link_buffers58 int_link_buffers59 int_link_buffers60 int_link_buffers61 int_link_buffers62 int_link_buffers63 int_link_buffers64 int_link_buffers65 int_link_buffers66 int_link_buffers67 int_link_buffers68 int_link_buffers69 int_link_buffers70 int_link_buffers71 int_link_buffers72 int_link_buffers73 int_link_buffers74 int_link_buffers75 int_link_buffers76 int_link_buffers77 int_link_buffers78 int_link_buffers79 int_links0 int_links1 int_links2 int_links3
adaptive_routing=false
buffer_size=0
clk_domain=system.ruby.clk_domain
control_msg_size=8
default_p_state=UNDEFINED
endpoint_bandwidth=1000
eventq_index=0
ext_links=system.ruby.network.ext_links00 system.ruby.network.ext_links01 system.ruby.network.ext_links02 system.ruby.network.ext_links03 system.ruby.network.ext_links04 system.ruby.network.ext_links05 system.ruby.network.ext_links06 system.ruby.network.ext_links07 system.ruby.network.ext_links08 system.ruby.network.ext_links09 system.ruby.network.ext_links10 system.ruby.network.ext_links11 system.ruby.network.ext_links12 system.ruby.network.ext_links13
int_link_buffers=system.ruby.network.int_link_buffers00 system.ruby.network.int_link_buffers01 system.ruby.network.int_link_buffers02 system.ruby.network.int_link_buffers03 system.ruby.network.int_link_buffers04 system.ruby.network.int_link_buffers05 system.ruby.network.int_link_buffers06 system.ruby.network.int_link_buffers07 system.ruby.network.int_link_buffers08 system.ruby.network.int_link_buffers09 system.ruby.network.int_link_buffers10 system.ruby.network.int_link_buffers11 system.ruby.network.int_link_buffers12 system.ruby.network.int_link_buffers13 system.ruby.network.int_link_buffers14 system.ruby.network.int_link_buffers15 system.ruby.network.int_link_buffers16 system.ruby.network.int_link_buffers17 system.ruby.network.int_link_buffers18 system.ruby.network.int_link_buffers19 system.ruby.network.int_link_buffers20 system.ruby.network.int_link_buffers21 system.ruby.network.int_link_buffers22 system.ruby.network.int_link_buffers23 system.ruby.network.int_link_buffers24 system.ruby.network.int_link_buffers25 system.ruby.network.int_link_buffers26 system.ruby.network.int_link_buffers27 system.ruby.network.int_link_buffers28 system.ruby.network.int_link_buffers29 system.ruby.network.int_link_buffers30 system.ruby.network.int_link_buffers31 system.ruby.network.int_link_buffers32 system.ruby.network.int_link_buffers33 system.ruby.network.int_link_buffers34 system.ruby.network.int_link_buffers35 system.ruby.network.int_link_buffers36 system.ruby.network.int_link_buffers37 system.ruby.network.int_link_buffers38 system.ruby.network.int_link_buffers39 system.ruby.network.int_link_buffers40 system.ruby.network.int_link_buffers41 system.ruby.network.int_link_buffers42 system.ruby.network.int_link_buffers43 system.ruby.network.int_link_buffers44 system.ruby.network.int_link_buffers45 system.ruby.network.int_link_buffers46 system.ruby.network.int_link_buffers47 system.ruby.network.int_link_buffers48 system.ruby.network.int_link_buffers49 system.ruby.network.int_link_buffers50 system.ruby.network.int_link_buffers51 system.ruby.network.int_link_buffers52 system.ruby.network.int_link_buffers53 system.ruby.network.int_link_buffers54 system.ruby.network.int_link_buffers55 system.ruby.network.int_link_buffers56 system.ruby.network.int_link_buffers57 system.ruby.network.int_link_buffers58 system.ruby.network.int_link_buffers59 system.ruby.network.int_link_buffers60 system.ruby.network.int_link_buffers61 system.ruby.network.int_link_buffers62 system.ruby.network.int_link_buffers63 system.ruby.network.int_link_buffers64 system.ruby.network.int_link_buffers65 system.ruby.network.int_link_buffers66 system.ruby.network.int_link_buffers67 system.ruby.network.int_link_buffers68 system.ruby.network.int_link_buffers69 system.ruby.network.int_link_buffers70 system.ruby.network.int_link_buffers71 system.ruby.network.int_link_buffers72 system.ruby.network.int_link_buffers73 system.ruby.network.int_link_buffers74 system.ruby.network.int_link_buffers75 system.ruby.network.int_link_buffers76 system.ruby.network.int_link_buffers77 system.ruby.network.int_link_buffers78 system.ruby.network.int_link_buffers79
int_links=system.ruby.network.int_links0 system.ruby.network.int_links1 system.ruby.network.int_links2 system.ruby.network.int_links3
netifs=
number_of_virtual_networks=10
p_state_clk_gate_bins=20
p_state_clk_gate_max=1000000000
p_state_clk_gate_min=1
power_model=Null
routers=system.ruby.network.ext_links00.int_node system.ruby.network.ext_links01.int_node system.ruby.network.ext_links02.int_node
ruby_system=system.ruby
topology=Crossbar
master=system.dir_cntrl0.requestFromCores.slave system.dir_cntrl0.responseFromCores.slave system.dir_cntrl0.unblockFromCores.slave system.cp_cntrl0.probeToCore.slave system.cp_cntrl0.responseToCore.slave system.tcp_cntrl0.probeToTCP.slave system.tcp_cntrl0.responseToTCP.slave system.tcp_cntrl1.probeToTCP.slave system.tcp_cntrl1.responseToTCP.slave system.tcp_cntrl2.probeToTCP.slave system.tcp_cntrl2.responseToTCP.slave system.tcp_cntrl3.probeToTCP.slave system.tcp_cntrl3.responseToTCP.slave system.tcp_cntrl4.probeToTCP.slave system.tcp_cntrl4.responseToTCP.slave system.tcp_cntrl5.probeToTCP.slave system.tcp_cntrl5.responseToTCP.slave system.tcp_cntrl6.probeToTCP.slave system.tcp_cntrl6.responseToTCP.slave system.tcp_cntrl7.probeToTCP.slave system.tcp_cntrl7.responseToTCP.slave system.sqc_cntrl0.probeToSQC.slave system.sqc_cntrl0.responseToSQC.slave system.sqc_cntrl1.probeToSQC.slave system.sqc_cntrl1.responseToSQC.slave system.tcc_cntrl0.responseToTCC.slave system.tccdir_cntrl0.requestFromTCP.slave system.tccdir_cntrl0.responseFromTCP.slave system.tccdir_cntrl0.unblockFromTCP.slave system.tccdir_cntrl0.probeFromNB.slave system.tccdir_cntrl0.responseFromNB.slave
slave=system.dir_cntrl0.probeToCore.master system.dir_cntrl0.responseToCore.master system.cp_cntrl0.requestFromCore.master system.cp_cntrl0.responseFromCore.master system.cp_cntrl0.unblockFromCore.master system.tcp_cntrl0.requestFromTCP.master system.tcp_cntrl0.responseFromTCP.master system.tcp_cntrl0.unblockFromCore.master system.tcp_cntrl1.requestFromTCP.master system.tcp_cntrl1.responseFromTCP.master system.tcp_cntrl1.unblockFromCore.master system.tcp_cntrl2.requestFromTCP.master system.tcp_cntrl2.responseFromTCP.master system.tcp_cntrl2.unblockFromCore.master system.tcp_cntrl3.requestFromTCP.master system.tcp_cntrl3.responseFromTCP.master system.tcp_cntrl3.unblockFromCore.master system.tcp_cntrl4.requestFromTCP.master system.tcp_cntrl4.responseFromTCP.master system.tcp_cntrl4.unblockFromCore.master system.tcp_cntrl5.requestFromTCP.master system.tcp_cntrl5.responseFromTCP.master system.tcp_cntrl5.unblockFromCore.master system.tcp_cntrl6.requestFromTCP.master system.tcp_cntrl6.responseFromTCP.master system.tcp_cntrl6.unblockFromCore.master system.tcp_cntrl7.requestFromTCP.master system.tcp_cntrl7.responseFromTCP.master system.tcp_cntrl7.unblockFromCore.master system.sqc_cntrl0.requestFromSQC.master system.sqc_cntrl0.responseFromSQC.master system.sqc_cntrl0.unblockFromCore.master system.sqc_cntrl1.requestFromSQC.master system.sqc_cntrl1.responseFromSQC.master system.sqc_cntrl1.unblockFromCore.master system.tcc_cntrl0.responseFromTCC.master system.tccdir_cntrl0.probeToCore.master system.tccdir_cntrl0.responseToCore.master system.tccdir_cntrl0.requestToNB.master system.tccdir_cntrl0.responseToNB.master system.tccdir_cntrl0.unblockToNB.master

[system.ruby.network.ext_links00]
type=SimpleExtLink
children=int_node
bandwidth_factor=512
eventq_index=0
ext_node=system.dir_cntrl0
int_node=system.ruby.network.ext_links00.int_node
latency=1
link_id=0
weight=1

[system.ruby.network.ext_links00.int_node]
type=Switch
children=port_buffers000 port_buffers001 port_buffers002 port_buffers003 port_buffers004 port_buffers005 port_buffers006 port_buffers007 port_buffers008 port_buffers009 port_buffers010 port_buffers011 port_buffers012 port_buffers013 port_buffers014 port_buffers015 port_buffers016 port_buffers017 port_buffers018 port_buffers019 port_buffers020 port_buffers021 port_buffers022 port_buffers023 port_buffers024 port_buffers025 port_buffers026 port_buffers027 port_buffers028 port_buffers029 port_buffers030 port_buffers031 port_buffers032 port_buffers033 port_buffers034 port_buffers035 port_buffers036 port_buffers037 port_buffers038 port_buffers039 port_buffers040 port_buffers041 port_buffers042 port_buffers043 port_buffers044 port_buffers045 port_buffers046 port_buffers047 port_buffers048 port_buffers049 port_buffers050 port_buffers051 port_buffers052 port_buffers053 port_buffers054 port_buffers055 port_buffers056 port_buffers057 port_buffers058 port_buffers059 port_buffers060 port_buffers061 port_buffers062 port_buffers063 port_buffers064 port_buffers065 port_buffers066 port_buffers067 port_buffers068 port_buffers069 port_buffers070 port_buffers071 port_buffers072 port_buffers073 port_buffers074 port_buffers075 port_buffers076 port_buffers077 port_buffers078 port_buffers079 port_buffers080 port_buffers081 port_buffers082 port_buffers083 port_buffers084 port_buffers085 port_buffers086 port_buffers087 port_buffers088 port_buffers089 port_buffers090 port_buffers091 port_buffers092 port_buffers093 port_buffers094 port_buffers095 port_buffers096 port_buffers097 port_buffers098 port_buffers099 port_buffers100 port_buffers101 port_buffers102 port_buffers103 port_buffers104 port_buffers105 port_buffers106 port_buffers107 port_buffers108 port_buffers109 port_buffers110 port_buffers111 port_buffers112 port_buffers113 port_buffers114 port_buffers115 port_buffers116 port_buffers117 port_buffers118 port_buffers119 port_buffers120 port_buffers121 port_buffers122 port_buffers123 port_buffers124 port_buffers125 port_buffers126 port_buffers127 port_buffers128 port_buffers129 port_buffers130 port_buffers131 port_buffers132 port_buffers133 port_buffers134 port_buffers135 port_buffers136 port_buffers137 port_buffers138 port_buffers139 port_buffers140 port_buffers141 port_buffers142 port_buffers143 port_buffers144 port_buffers145 port_buffers146 port_buffers147 port_buffers148 port_buffers149 port_buffers150 port_buffers151 port_buffers152 port_buffers153 port_buffers154 port_buffers155 port_buffers156 port_buffers157 port_buffers158 port_buffers159
clk_domain=system.ruby.clk_domain
default_p_state=UNDEFINED
eventq_index=0
latency=1
p_state_clk_gate_bins=20
p_state_clk_gate_max=1000000000
p_state_clk_gate_min=1