[root]
type=Root
children=system
eventq_index=0
full_system=false
sim_quantum=0
time_sync_enable=false
time_sync_period=100000000
time_sync_spin_threshold=100000

[system]
type=System
children=clk_domain cpu0 cpu1 cpu2 cpu3 cpu4 cpu5 cpu6 cpu7 cpu_clk_domain dvfs_handler funcbus funcmem mem_ctrls ruby sys_port_proxy voltage_domain
boot_osflags=a
cache_line_size=64
clk_domain=system.clk_domain
eventq_index=0
init_param=0
kernel=
kernel_addr_check=true
load_addr_mask=1099511627775
load_offset=0
mem_mode=timing
mem_ranges=0:268435455
memories=system.funcmem system.mem_ctrls
num_work_ids=16
readfile=
symbolfile=
work_begin_ckpt_count=0
work_begin_cpu_id_exit=-1
work_begin_exit_count=0
work_cpus_ckpt_count=0
work_end_ckpt_count=0
work_end_exit_count=0
work_item_id=-1
system_port=system.sys_port_proxy.slave[0]

[system.clk_domain]
type=SrcClockDomain
clock=1
domain_id=-1
eventq_index=0
init_perf_level=0
voltage_domain=system.voltage_domain

[system.cpu0]
type=MemTest
atomic=false
clk_domain=system.cpu_clk_domain
eventq_index=0
issue_dmas=false
max_loads=100000
memory_size=65536
percent_dest_unaligned=50
percent_functional=50
percent_reads=65
percent_source_unaligned=50
percent_uncacheable=0
progress_interval=10000
suppress_func_warnings=true
sys=system
trace_addr=0
functional=system.funcbus.slave[0]
test=system.ruby.l1_cntrl0.sequencer.slave[0]

[system.cpu1]
type=MemTest
atomic=false
clk_domain=system.cpu_clk_domain
eventq_index=0
issue_dmas=false
max_loads=100000
memory_size=65536
percent_dest_unaligned=50
percent_functional=50
percent_reads=65
percent_source_unaligned=50
percent_uncacheable=0
progress_interval=10000
suppress_func_warnings=true
sys=system
trace_addr=0
functional=system.funcbus.slave[1]
test=system.ruby.l1_cntrl1.sequencer.slave[0]

[system.cpu2]
type=MemTest
atomic=false
clk_domain=system.cpu_clk_domain
eventq_index=0
issue_dmas=false
max_loads=100000
memory_size=65536
percent_dest_unaligned=50
percent_functional=50
percent_reads=65
percent_source_unaligned=50
percent_uncacheable=0
progress_interval=10000
suppress_func_warnings=true
sys=system
trace_addr=0
functional=system.funcbus.slave[2]
test=system.ruby.l1_cntrl2.sequencer.slave[0]

[system.cpu3]
type=MemTest
atomic=false
clk_domain=system.cpu_clk_domain
eventq_index=0
issue_dmas=false
max_loads=100000
memory_size=65536
percent_dest_unaligned=50
percent_functional=50
percent_reads=65
percent_source_unaligned=50
percent_uncacheable=0
progress_interval=10000
suppress_func_warnings=true
sys=system
trace_addr=0
functional=system.funcbus.slave[3]
test=system.ruby.l1_cntrl3.sequencer.slave[0]

[system.cpu4]
type=MemTest
atomic=false
clk_domain=system.cpu_clk_domain
eventq_index=0
issue_dmas=false
max_loads=100000
memory_size=65536
percent_dest_unaligned=50
percent_functional=50
percent_reads=65
percent_source_unaligned=50
percent_uncacheable=0
progress_interval=10000
suppress_func_warnings=true
sys=system
trace_addr=0
functional=system.funcbus.slave[4]
test=system.ruby.l1_cntrl4.sequencer.slave[0]

[system.cpu5]
type=MemTest
atomic=false
clk_domain=system.cpu_clk_domain
eventq_index=0
issue_dmas=false
max_loads=100000
memory_size=65536
percent_dest_unaligned=50
percent_functional=50
percent_reads=65
percent_source_unaligned=50
percent_uncacheable=0
progress_interval=10000
suppress_func_warnings=true
sys=system
trace_addr=0
functional=system.funcbus.slave[5]
test=system.ruby.l1_cntrl5.sequencer.slave[0]

[system.cpu6]
type=MemTest
atomic=false
clk_domain=system.cpu_clk_domain
eventq_index=0
issue_dmas=false
max_loads=100000
memory_size=65536
percent_dest_unaligned=50
percent_functional=50
percent_reads=65
percent_source_unaligned=50
percent_uncacheable=0
progress_interval=10000
suppress_func_warnings=true
sys=system
trace_addr=0
functional=system.funcbus.slave[6]
test=system.ruby.l1_cntrl6.sequencer.slave[0]

[system.cpu7]
type=MemTest
atomic=false
clk_domain=system.cpu_clk_domain
eventq_index=0
issue_dmas=false
max_loads=100000
memory_size=65536
percent_dest_unaligned=50
percent_functional=50
percent_reads=65
percent_source_unaligned=50
percent_uncacheable=0
progress_interval=10000
suppress_func_warnings=true
sys=system
trace_addr=0
functional=system.funcbus.slave[7]
test=system.ruby.l1_cntrl7.sequencer.slave[0]

[system.cpu_clk_domain]
type=SrcClockDomain
clock=1
domain_id=-1
eventq_index=0
init_perf_level=0
voltage_domain=system.voltage_domain

[system.dvfs_handler]
type=DVFSHandler
domains=
enable=false
eventq_index=0
sys_clk_domain=system.clk_domain
transition_latency=100000

[system.funcbus]
type=NoncoherentXBar
clk_domain=system.clk_domain
eventq_index=0
header_cycles=1
use_default_range=false
width=8
master=system.funcmem.port
slave=system.cpu0.functional system.cpu1.functional system.cpu2.functional system.cpu3.functional system.cpu4.functional system.cpu5.functional system.cpu6.functional system.cpu7.functional

[system.funcmem]
type=SimpleMemory
bandwidth=0.000000
clk_domain=system.clk_domain
conf_table_reported=true
eventq_index=0
in_addr_map=false
latency=30
latency_var=0
null=false
range=0:134217727
port=system.funcbus.master[0]

[system.mem_ctrls]
type=DRAMCtrl
IDD0=0.075000
IDD02=0.000000
IDD2N=0.050000
IDD2N2=0.000000
IDD2P0=0.000000
IDD2P02=0.000000
IDD2P1=0.000000
IDD2P12=0.000000
IDD3N=0.057000
IDD3N2=0.000000
IDD3P0=0.000000
IDD3P02=0.000000
IDD3P1=0.000000
IDD3P12=0.000000
IDD4R=0.187000
IDD4R2=0.000000
IDD4W=0.165000
IDD4W2=0.000000
IDD5=0.220000
IDD52=0.000000
IDD6=0.000000
IDD62=0.000000
VDD=1.500000
VDD2=0.000000
activation_limit=4
addr_mapping=RoRaBaChCo
bank_groups_per_rank=0
banks_per_rank=8
burst_length=8
channels=1
clk_domain=system.clk_domain
conf_table_reported=true
device_bus_width=8
device_rowbuffer_size=1024
device_size=536870912
devices_per_rank=8
dll=true
eventq_index=0
in_addr_map=true
max_accesses_per_row=16
mem_sched_policy=frfcfs
min_writes_per_switch=16
null=false
page_policy=open_adaptive
range=0:268435455
ranks_per_channel=2
read_buffer_size=32
static_backend_latency=10
static_frontend_latency=10
tBURST=5
tCCD_L=0
tCK=1
tCL=14
tCS=3
tRAS=35
tRCD=14
tREFI=7800
tRFC=260
tRP=14
tRRD=6
tRRD_L=0
tRTP=8
tRTW=3
tWR=15
tWTR=8
tXAW=30
tXP=0
tXPDLL=0
tXS=0
tXSDLL=0
write_buffer_size=64
write_high_thresh_perc=85
write_low_thresh_perc=50
port=system.ruby.dir_cntrl0.memory

[system.ruby]
type=RubySystem
children=clk_domain dir_cntrl0 l1_cntrl0 l1_cntrl1 l1_cntrl2 l1_cntrl3 l1_cntrl4 l1_cntrl5 l1_cntrl6 l1_cntrl7 l2_cntrl0 memctrl_clk_domain network
all_instructions=false
block_size_bytes=64
clk_domain=system.ruby.clk_domain
eventq_index=0
hot_lines=false
memory_size_bits=48
num_of_sequencers=8
phys_mem=Null
random_seed=1234
randomization=false

[system.ruby.clk_domain]
type=SrcClockDomain
clock=1
domain_id=-1
eventq_index=0
init_perf_level=0
voltage_domain=system.voltage_domain

[system.ruby.dir_cntrl0]
type=Directory_Controller
children=directory
buffer_size=0
clk_domain=system.ruby.clk_domain
cluster_id=0
directory=system.ruby.dir_cntrl0.directory
directory_latency=5
distributed_persistent=true
eventq_index=0
fixed_timeout_latency=100
l2_select_num_bits=0
number_of_TBEs=256
recycle_latency=10
reissue_wakeup_latency=10
ruby_system=system.ruby
system=system
to_memory_controller_latency=1
transitions_per_cycle=32
version=0
dmaRequestToDir=system.ruby.network.master[31]
dmaResponseFromDir=system.ruby.network.slave[30]
memory=system.mem_ctrls.port
persistentFromDir=system.ruby.network.slave[29]
persistentToDir=system.ruby.network.master[30]
requestFromDir=system.ruby.network.slave[27]
requestToDir=system.ruby.network.master[28]
responseFromDir=system.ruby.network.slave[28]
responseToDir=system.ruby.network.master[29]

[system.ruby.dir_cntrl0.directory]
type=RubyDirectoryMemory
eventq_index=0
numa_high_bit=5
size=268435456
version=0

[system.ruby.l1_cntrl0]
type=L1Cache_Controller
children=L1Dcache L1Icache sequencer
L1Dcache=system.ruby.l1_cntrl0.L1Dcache
L1Icache=system.ruby.l1_cntrl0.L1Icache
N_tokens=9
buffer_size=0
clk_domain=system.cpu_clk_domain
cluster_id=0
dynamic_timeout_enabled=true
eventq_index=0
fixed_timeout_latency=300
l1_request_latency=2
l1_response_latency=2
l2_select_num_bits=0
no_mig_atomic=true
number_of_TBEs=256
recycle_latency=10
reissue_wakeup_latency=10
retry_threshold=1
ruby_system=system.ruby
send_evictions=false
sequencer=system.ruby.l1_cntrl0.sequencer
system=system
transitions_per_cycle=32
use_timeout_latency=50
version=0
persistentFromL1Cache=system.ruby.network.slave[2]
persistentToL1Cache=system.ruby.network.master[2]
requestFromL1Cache=system.ruby.network.slave[0]
requestToL1Cache=system.ruby.network.master[0]
responseFromL1Cache=system.ruby.network.slave[1]
responseToL1Cache=system.ruby.network.master[1]

[system.ruby.l1_cntrl0.L1Dcache]
type=RubyCache
assoc=2
dataAccessLatency=1
dataArrayBanks=1
eventq_index=0
is_icache=false
latency=2
replacement_policy=PSEUDO_LRU
resourceStalls=false
size=256
start_index_bit=6
tagAccessLatency=1
tagArrayBanks=1

[system.ruby.l1_cntrl0.L1Icache]
type=RubyCache
assoc=2
dataAccessLatency=1
dataArrayBanks=1
eventq_index=0
is_icache=false
latency=2
replacement_policy=PSEUDO_LRU
resourceStalls=false
size=256
start_index_bit=6
tagAccessLatency=1
tagArrayBanks=1

[system.ruby.l1_cntrl0.sequencer]
type=RubySequencer
access_backing_store=false
clk_domain=system.cpu_clk_domain
dcache=system.ruby.l1_cntrl0.L1Dcache
deadlock_threshold=1000000
eventq_index=0
icache=system.ruby.l1_cntrl0.L1Icache
max_outstanding_requests=16
ruby_system=system.ruby
support_data_reqs=true
support_inst_reqs=true
system=system
using_network_tester=false
using_ruby_tester=false
version=0
slave=system.cpu0.test

[system.ruby.l1_cntrl1]
type=L1Cache_Controller
children=L1Dcache L1Icache sequencer
L1Dcache=system.ruby.l1_cntrl1.L1Dcache
L1Icache=system.ruby.l1_cntrl1.L1Icache
N_tokens=9
buffer_size=0
clk_domain=system.cpu_clk_domain
cluster_id=0
dynamic_timeout_enabled=true
eventq_index=0
fixed_timeout_latency=300
l1_request_latency=2
l1_response_latency=2
l2_select_num_bits=0
no_mig_atomic=true
number_of_TBEs=256
recycle_latency=10
reissue_wakeup_latency=10
retry_threshold=1
ruby_system=system.ruby
send_evictions=false
sequencer=system.ruby.l1_cntrl1.sequencer
system=system
transitions_per_cycle=32
use_timeout_latency=50
version=1
persistentFromL1Cache=system.ruby.network.slave[5]
persistentToL1Cache=system.ruby.network.master[5]
requestFromL1Cache=system.ruby.network.slave[3]
requestToL1Cache=system.ruby.network.master[3]
responseFromL1Cache=system.ruby.network.slave[4]
responseToL1Cache=system.ruby.network.master[4]

[system.ruby.l1_cntrl1.L1Dcache]
type=RubyCache
assoc=2
dataAccessLatency=1
dataArrayBanks=1
eventq_index=0
is_icache=false
latency=2
replacement_policy=PSEUDO_LRU
resourceStalls=false
size=256
start_index_bit=6
tagAccessLatency=1
tagArrayBanks=1

[system.ruby.l1_cntrl1.L1Icache]
type=RubyCache
assoc=2
dataAccessLatency=1
dataArrayBanks=1
eventq_index=0
is_icache=false
latency=2
replacement_policy=PSEUDO_LRU
resourceStalls=false
size=256
start_index_bit=6
tagAccessLatency=1
tagArrayBanks=1

[system.ruby.l1_cntrl1.sequencer]
type=RubySequencer
access_backing_store=false
clk_domain=system.cpu_clk_domain
dcache=system.ruby.l1_cntrl1.L1Dcache
deadlock_threshold=1000000
eventq_index=0
icache=system.ruby.l1_cntrl1.L1Icache
max_outstanding_requests=16
ruby_system=system.ruby
support_data_reqs=true
support_inst_reqs=true
system=system
using_network_tester=false
using_ruby_tester=false
version=1
slave=system.cpu1.test

[system.ruby.l1_cntrl2]
type=L1Cache_Controller
children=L1Dcache L1Icache sequencer
L1Dcache=system.ruby.l1_cntrl2.L1Dcache
L1Icache=system.ruby.l1_cntrl2.L1Icache
N_tokens=9
buffer_size=0
clk_domain=system.cpu_clk_domain
cluster_id=0
dynamic_timeout_enabled=true
eventq_index=0
fixed_timeout_latency=300
l1_request_latency=2
l1_response_latency=2
l2_select_num_bits=0
no_mig_atomic=true
number_of_TBEs=256
recycle_latency=10
reissue_wakeup_latency=10
retry_threshold=1
ruby_system=system.ruby
send_evictions=false
sequencer=system.ruby.l1_cntrl2.sequencer
system=system
transitions_per_cycle=32
use_timeout_latency=50
version=2
persistentFromL1Cache=system.ruby.network.slave[8]
persistentToL1Cache=system.ruby.network.master[8]
requestFromL1Cache=system.ruby.network.slave[6]
requestToL1Cache=system.ruby.network.master[6]
responseFromL1Cache=system.ruby.network.slave[7]
responseToL1Cache=system.ruby.network.master[7]

[system.ruby.l1_cntrl2.L1Dcache]
type=RubyCache
assoc=2
dataAccessLatency=1
dataArrayBanks=1
eventq_index=0
is_icache=false
latency=2
replacement_policy=PSEUDO_LRU
resourceStalls=false
size=256
start_index_bit=6
tagAccessLatency=1
tagArrayBanks=1

[system.ruby.l1_cntrl2.L1Icache]
type=RubyCache
assoc=2
dataAccessLatency=1
dataArrayBanks=1
eventq_index=0
is_icache=false
latency=2
replacement_policy=PSEUDO_LRU
resourceStalls=false
size=256
start_index_bit=6
tagAccessLatency=1
tagArrayBanks=1

[system.ruby.l1_cntrl2.sequencer]
type=RubySequencer
access_backing_store=false
clk_domain=system.cpu_clk_domain
dcache=system.ruby.l1_cntrl2.L1Dcache
deadlock_threshold=1000000
eventq_index=0
icache=system.ruby.l1_cntrl2.L1Icache
max_outstanding_requests=16
ruby_system=system.ruby
support_data_reqs=true
support_inst_reqs=true
system=system
using_network_tester=false
using_ruby_tester=false
version=2
slave=system.cpu2.test

[system.ruby.l1_cntrl3]
type=L1Cache_Controller
children=L1Dcache L1Icache sequencer
L1Dcache=system.ruby.l1_cntrl3.L1Dcache
L1Icache=system.ruby.l1_cntrl3.L1Icache
N_tokens=9
buffer_size=0
clk_domain=system.cpu_clk_domain
cluster_id=0
dynamic_timeout_enabled=true
eventq_index=0
fixed_timeout_latency=300
l1_request_latency=2
l1_response_latency=2
l2_select_num_bits=0
no_mig_atomic=true
number_of_TBEs=256
recycle_latency=10
reissue_wakeup_latency=10
retry_threshold=1
ruby_system=system.ruby
send_evictions=false
sequencer=system.ruby.l1_cntrl3.sequencer
system=system
transitions_per_cycle=32
use_timeout_latency=50
version=3
persistentFromL1Cache=system.ruby.network.slave[11]
persistentToL1Cache=system.ruby.network.master[11]
requestFromL1Cache=system.ruby.network.slave[9]
requestToL1Cache=system.ruby.network.master[9]
responseFromL1Cache=system.ruby.network.slave[10]
responseToL1Cache=system.ruby.network.master[10]

[system.ruby.l1_cntrl3.L1Dcache]
type=RubyCache
assoc=2
dataAccessLatency=1
dataArrayBanks=1
eventq_index=0
is_icache=false
latency=2
replacement_policy=PSEUDO_LRU
resourceStalls=false
size=256
start_index_bit=6
tagAccessLatency=1
tagArrayBanks=1

[system.ruby.l1_cntrl3.L1Icache]
type=RubyCache
assoc=2
dataAccessLatency=1
dataArrayBanks=1
eventq_index=0
is_icache=false
latency=2
replacement_policy=PSEUDO_LRU
resourceStalls=false
size=256
start_index_bit=6
tagAccessLatency=1
tagArrayBanks=1

[system.ruby.l1_cntrl3.sequencer]
type=RubySequencer
access_backing_store=false
clk_domain=system.cpu_clk_domain
dcache=system.ruby.l1_cntrl3.L1Dcache
deadlock_threshold=1000000
eventq_index=0
icache=system.ruby.l1_cntrl3.L1Icache
max_outstanding_requests=16
ruby_system=system.ruby
support_data_reqs=true
support_inst_reqs=true
system=system
using_network_tester=false
using_ruby_tester=false
version=3
slave=system.cpu3.test

[system.ruby.l1_cntrl4]
type=L1Cache_Controller
children=L1Dcache L1Icache sequencer
L1Dcache=system.ruby.l1_cntrl4.L1Dcache
L1Icache=system.ruby.l1_cntrl4.L1Icache
N_tokens=9
buffer_size=0
clk_domain=system.cpu_clk_domain
cluster_id=0
dynamic_timeout_enabled=true
eventq_index=0
fixed_timeout_latency=300
l1_request_latency=2
l1_response_latency=2
l2_select_num_bits=0
no_mig_atomic=true
number_of_TBEs=256
recycle_latency=10
reissue_wakeup_latency=10
retry_threshold=1
ruby_system=system.ruby
send_evictions=false
sequencer=system.ruby.l1_cntrl4.sequencer
system=system
transitions_per_cycle=32
use_timeout_latency=50
version=4
persistentFromL1Cache=system.ruby.network.slave[14]
persistentToL1Cache=system.ruby.network.master[14]
requestFromL1Cache=system.ruby.network.slave[12]
requestToL1Cache=system.ruby.network.master[12]
responseFromL1Cache=system.ruby.network.slave[13]
responseToL1Cache=system.ruby.network.master[13]

[system.ruby.l1_cntrl4.L1Dcache]
type=RubyCache
assoc=2
dataAccessLatency=1
dataArrayBanks=1
eventq_index=0
is_icache=false
latency=2
replacement_policy=PSEUDO_LRU
resourceStalls=false
size=256
start_index_bit=6
tagAccessLatency=1
tagArrayBanks=1

[system.ruby.l1_cntrl4.L1Icache]
type=RubyCache
assoc=2
dataAccessLatency=1
dataArrayBanks=1
eventq_index=0
is_icache=false
latency=2
replacement_policy=PSEUDO_LRU
resourceStalls=false
size=256
start_index_bit=6
tagAccessLatency=1
tagArrayBanks=1

[system.ruby.l1_cntrl4.sequencer]
type=RubySequencer
access_backing_store=false
clk_domain=system.cpu_clk_domain
dcache=system.ruby.l1_cntrl4.L1Dcache
deadlock_threshold=1000000
eventq_index=0
icache=system.ruby.l1_cntrl4.L1Icache
max_outstanding_requests=16
ruby_system=system.ruby
support_data_reqs=true
support_inst_reqs=true
system=system
using_network_tester=false
using_ruby_tester=false
version=4
slave=system.cpu4.test

[system.ruby.l1_cntrl5]
type=L1Cache_Controller
children=L1Dcache L1Icache sequencer
L1Dcache=system.ruby.l1_cntrl5.L1Dcache
L1Icache=system.ruby.l1_cntrl5.L1Icache
N_tokens=9
buffer_size=0
clk_domain=system.cpu_clk_domain
cluster_id=0
dynamic_timeout_enabled=true
eventq_index=0
fixed_timeout_latency=300
l1_request_latency=2
l1_response_latency=2
l2_select_num_bits=0
no_mig_atomic=true
number_of_TBEs=256
recycle_latency=10
reissue_wakeup_latency=10
retry_threshold=1
ruby_system=system.ruby
send_evictions=false
sequencer=system.ruby.l1_cntrl5.sequencer
system=system
transitions_per_cycle=32
use_timeout_latency=50
version=5
persistentFromL1Cache=system.ruby.network.slave[17]
persistentToL1Cache=system.ruby.network.master[17]
requestFromL1Cache=system.ruby.network.slave[15]
requestToL1Cache=system.ruby.network.master[15]
responseFromL1Cache=system.ruby.network.slave[16]
responseToL1Cache=system.ruby.network.master[16]

[system.ruby.l1_cntrl5.L1Dcache]
type=RubyCache
assoc=2
dataAccessLatency=1
dataArrayBanks=1
eventq_index=0
is_icache=false
latency=2
replacement_policy=PSEUDO_LRU
resourceStalls=false
size=256
start_index_bit=6
tagAccessLatency=1
tagArrayBanks=1

[system.ruby.l1_cntrl5.L1Icache]
type=RubyCache
assoc=2
dataAccessLatency=1
dataArrayBanks=1
eventq_index=0
is_icache=false
latency=2
replacement_policy=PSEUDO_LRU
resourceStalls=false
size=256
start_index_bit=6
tagAccessLatency=1
tagArrayBanks=1

[system.ruby.l1_cntrl5.sequencer]
type=RubySequencer
access_backing_store=false
clk_domain=system.cpu_clk_domain
dcache=system.ruby.l1_cntrl5.L1Dcache
deadlock_threshold=1000000
eventq_index=0
icache=system.ruby.l1_cntrl5.L1Icache
max_outstanding_requests=16
ruby_system=system.ruby
support_data_reqs=true
support_inst_reqs=true
system=system
using_network_tester=false
using_ruby_tester=false
version=5
slave=system.cpu5.test

[system.ruby.l1_cntrl6]
type=L1Cache_Controller
children=L1Dcache L1Icache sequencer
L1Dcache=system.ruby.l1_cntrl6.L1Dcache
L1Icache=system.ruby.l1_cntrl6.L1Icache
N_tokens=9
buffer_size=0
clk_domain=system.cpu_clk_domain
cluster_id=0
dynamic_timeout_enabled=true
eventq_index=0
fixed_timeout_latency=300
l1_request_latency=2
l1_response_latency=2
l2_select_num_bits=0
no_mig_atomic=true
number_of_TBEs=256
recycle_latency=10
reissue_wakeup_latency=10
retry_threshold=1
ruby_system=system.ruby
send_evictions=false
sequencer=system.ruby.l1_cntrl6.sequencer
system=system
transitions_per_cycle=32
use_timeout_latency=50
version=6
persistentFromL1Cache=system.ruby.network.slave[20]
persistentToL1Cache=system.ruby.network.master[20]
requestFromL1Cache=system.ruby.network.slave[18]
requestToL1Cache=system.ruby.network.master[18]
responseFromL1Cache=system.ruby.network.slave[19]
responseToL1Cache=system.ruby.network.master[19]

[system.ruby.l1_cntrl6.L1Dcache]
type=RubyCache
assoc=2
dataAccessLatency=1
dataArrayBanks=1
eventq_index=0
is_icache=false
latency=2
replacement_policy=PSEUDO_LRU
resourceStalls=false
size=256
start_index_bit=6
tagAccessLatency=1
tagArrayBanks=1

[system.ruby.l1_cntrl6.L1Icache]
type=RubyCache
assoc=2
dataAccessLatency=1
dataArrayBanks=1
eventq_index=0
is_icache=false
latency=2
replacement_policy=PSEUDO_LRU
resourceStalls=false
size=256
start_index_bit=6
tagAccessLatency=1
tagArrayBanks=1

[system.ruby.l1_cntrl6.sequencer]
type=RubySequencer
access_backing_store=false
clk_domain=system.cpu_clk_domain
dcache=system.ruby.l1_cntrl6.L1Dcache
deadlock_threshold=1000000
eventq_index=0
icache=system.ruby.l1_cntrl6.L1Icache
max_outstanding_requests=16
ruby_system=system.ruby
support_data_reqs=true
support_inst_reqs=true
system=system
using_network_tester=false
using_ruby_tester=false
version=6
slave=system.cpu6.test

[system.ruby.l1_cntrl7]
type=L1Cache_Controller
children=L1Dcache L1Icache sequencer
L1Dcache=system.ruby.l1_cntrl7.L1Dcache
L1Icache=system.ruby.l1_cntrl7.L1Icache
N_tokens=9
buffer_size=0
clk_domain=system.cpu_clk_domain
cluster_id=0
dynamic_timeout_enabled=true
eventq_index=0
fixed_timeout_latency=300
l1_request_latency=2
l1_response_latency=2
l2_select_num_bits=0
no_mig_atomic=true
number_of_TBEs=256
recycle_latency=10
reissue_wakeup_latency=10
retry_threshold=1
ruby_system=system.ruby
send_evictions=false
sequencer=system.ruby.l1_cntrl7.sequencer
system=system
transitions_per_cycle=32
use_timeout_latency=50
version=7
persistentFromL1Cache=system.ruby.network.slave[23]
persistentToL1Cache=system.ruby.network.master[23]
requestFromL1Cache=system.ruby.network.slave[21]
requestToL1Cache=system.ruby.network.master[21]
responseFromL1Cache=system.ruby.network.slave[22]
responseToL1Cache=system.ruby.network.master[22]

[system.ruby.l1_cntrl7.L1Dcache]
type=RubyCache
assoc=2
dataAccessLatency=1
dataArrayBanks=1
eventq_index=0
is_icache=false
latency=2
replacement_policy=PSEUDO_LRU
resourceStalls=false
size=256
start_index_bit=6
tagAccessLatency=1
tagArrayBanks=1

[system.ruby.l1_cntrl7.L1Icache]
type=RubyCache
assoc=2
dataAccessLatency=1
dataArrayBanks=1
eventq_index=0
is_icache=false
latency=2
replacement_policy=PSEUDO_LRU
resourceStalls=false
size=256
start_index_bit=6
tagAccessLatency=1
tagArrayBanks=1

[system.ruby.l1_cntrl7.sequencer]
type=RubySequencer
access_backing_store=false
clk_domain=system.cpu_clk_domain
dcache=system.ruby.l1_cntrl7.L1Dcache
deadlock_threshold=1000000
eventq_index=0
icache=system.ruby.l1_cntrl7.L1Icache
max_outstanding_requests=16
ruby_system=system.ruby
support_data_reqs=true
support_inst_reqs=true
system=system
using_network_tester=false
using_ruby_tester=false
version=7
slave=system.cpu7.test

[system.ruby.l2_cntrl0]
type=L2Cache_Controller
children=L2cache
L2cache=system.ruby.l2_cntrl0.L2cache
N_tokens=9
buffer_size=0
clk_domain=system.ruby.clk_domain
cluster_id=0
eventq_index=0
filtering_enabled=true
l2_request_latency=5
l2_response_latency=5
number_of_TBEs=256
recycle_latency=10
ruby_system=system.ruby
system=system
transitions_per_cycle=32
version=0
GlobalRequestFromL2Cache=system.ruby.network.slave[24]
GlobalRequestToL2Cache=system.ruby.network.master[24]
L1RequestFromL2Cache=system.ruby.network.slave[25]
L1RequestToL2Cache=system.ruby.network.master[25]
persistentToL2Cache=system.ruby.network.master[27]
responseFromL2Cache=system.ruby.network.slave[26]
responseToL2Cache=system.ruby.network.master[26]

[system.ruby.l2_cntrl0.L2cache]
type=RubyCache
assoc=2
dataAccessLatency=1
dataArrayBanks=1
eventq_index=0
is_icache=false
latency=10
replacement_policy=PSEUDO_LRU
resourceStalls=false
size=512
start_index_bit=6
tagAccessLatency=1
tagArrayBanks=1

[system.ruby.memctrl_clk_domain]
type=DerivedClockDomain
clk_divider=3
clk_domain=system.ruby.clk_domain
eventq_index=0

[system.ruby.network]
type=SimpleNetwork
children=ext_links0 ext_links1 ext_links2 ext_links3 ext_links4 ext_links5 ext_links6 ext_links7 ext_links8 ext_links9 int_links0 int_links1 int_links2 int_links3 int_links4 int_links5 int_links6 int_links7 int_links8 int_links9 routers00 routers01 routers02 routers03 routers04 routers05 routers06 routers07 routers08 routers09 routers10
adaptive_routing=false
buffer_size=0
clk_domain=system.ruby.clk_domain
control_msg_size=8
endpoint_bandwidth=1000
eventq_index=0
ext_links=system.ruby.network.ext_links0 system.ruby.network.ext_links1 system.ruby.network.ext_links2 system.ruby.network.ext_links3 system.ruby.network.ext_links4 system.ruby.network.ext_links5 system.ruby.network.ext_links6 system.ruby.network.ext_links7 system.ruby.network.ext_links8 system.ruby.network.ext_links9
int_links=system.ruby.network.int_links0 system.ruby.network.int_links1 system.ruby.network.int_links2 system.ruby.network.int_links3 system.ruby.network.int_links4 system.ruby.network.int_links5 system.ruby.network.int_links6 system.ruby.network.int_links7 system.ruby.network.int_links8 system.ruby.network.int_links9
netifs=
number_of_virtual_networks=10
routers=system.ruby.network.routers00 system.ruby.network.routers01 system.ruby.network.routers02 system.ruby.network.routers03 system.ruby.network.routers04 system.ruby.network.routers05 system.ruby.network.routers06 system.ruby.network.routers07 system.ruby.network.routers08 system.ruby.network.routers09 system.ruby.network.routers10
ruby_system=system.ruby
topology=Crossbar
master=system.ruby.l1_cntrl0.requestToL1Cache system.ruby.l1_cntrl0.responseToL1Cache system.ruby.l1_cntrl0.persistentToL1Cache system.ruby.l1_cntrl1.requestToL1Cache system.ruby.l1_cntrl1.responseToL1Cache system.ruby.l1_cntrl1.persistentToL1Cache system.ruby.l1_cntrl2.requestToL1Cache system.ruby.l1_cntrl2.responseToL1Cache system.ruby.l1_cntrl2.persistentToL1Cache system.ruby.l1_cntrl3.requestToL1Cache system.ruby.l1_cntrl3.responseToL1Cache system.ruby.l1_cntrl3.persistentToL1Cache system.ruby.l1_cntrl4.requestToL1Cache system.ruby.l1_cntrl4.responseToL1Cache system.ruby.l1_cntrl4.persistentToL1Cache system.ruby.l1_cntrl5.requestToL1Cache system.ruby.l1_cntrl5.responseToL1Cache system.ruby.l1_cntrl5.persistentToL1Cache system.ruby.l1_cntrl6.requestToL1Cache system.ruby.l1_cntrl6.responseToL1Cache system.ruby.l1_cntrl6.persistentToL1Cache system.ruby.l1_cntrl7.requestToL1Cache system.ruby.l1_cntrl7.responseToL1Cache system.ruby.l1_cntrl7.persistentToL1Cache system.ruby.l2_cntrl0.GlobalRequestToL2Cache system.ruby.l2_cntrl0.L1RequestToL2Cache system.ruby.l2_cntrl0.responseToL2Cache system.ruby.l2_cntrl0.persistentToL2Cache system.ruby.dir_cntrl0.requestToDir system.ruby.dir_cntrl0.responseToDir system.ruby.dir_cntrl0.persistentToDir system.ruby.dir_cntrl0.dmaRequestToDir
slave=system.ruby.l1_cntrl0.requestFromL1Cache system.ruby.l1_cntrl0.responseFromL1Cache system.ruby.l1_cntrl0.persistentFromL1Cache system.ruby.l1_cntrl1.requestFromL1Cache system.ruby.l1_cntrl1.responseFromL1Cache system.ruby.l1_cntrl1.persistentFromL1Cache system.ruby.l1_cntrl2.requestFromL1Cache system.ruby.l1_cntrl2.responseFromL1Cache system.ruby.l1_cntrl2.persistentFromL1Cache system.ruby.l1_cntrl3.requestFromL1Cache system.ruby.l1_cntrl3.responseFromL1Cache system.ruby.l1_cntrl3.persistentFromL1Cache system.ruby.l1_cntrl4.requestFromL1Cache system.ruby.l1_cntrl4.responseFromL1Cache system.ruby.l1_cntrl4.persistentFromL1Cache system.ruby.l1_cntrl5.requestFromL1Cache system.ruby.l1_cntrl5.responseFromL1Cache system.ruby.l1_cntrl5.persistentFromL1Cache system.ruby.l1_cntrl6.requestFromL1Cache system.ruby.l1_cntrl6.responseFromL1Cache system.ruby.l1_cntrl6.persistentFromL1Cache system.ruby.l1_cntrl7.requestFromL1Cache system.ruby.l1_cntrl7.responseFromL1Cache system.ruby.l1_cntrl7.persistentFromL1Cache system.ruby.l2_cntrl0.GlobalRequestFromL2Cache system.ruby.l2_cntrl0.L1RequestFromL2Cache system.ruby.l2_cntrl0.responseFromL2Cache system.ruby.dir_cntrl0.requestFromDir system.ruby.dir_cntrl0.responseFromDir system.ruby.dir_cntrl0.persistentFromDir system.ruby.dir_cntrl0.dmaResponseFromDir

[system.ruby.network.ext_links0]
type=SimpleExtLink
bandwidth_factor=16
eventq_index=0
ext_node=system.ruby.l1_cntrl0
int_node=system.ruby.network.routers00
latency=1
link_id=0
weight=1

[system.ruby.network.ext_links1]
type=SimpleExtLink
bandwidth_factor=16
eventq_index=0
ext_node=system.ruby.l1_cntrl1
int_node=system.ruby.network.routers01
latency=1
link_id=1
weight=1

[system.ruby.network.ext_links2]
type=SimpleExtLink
bandwidth_factor=16
eventq_index=0
ext_node=system.ruby.l1_cntrl2
int_node=system.ruby.network.routers02
latency=1
link_id=2
weight=1

[system.ruby.network.ext_links3]
type=SimpleExtLink
bandwidth_factor=16
eventq_index=0
ext_node=system.ruby.l1_cntrl3
int_node=system.ruby.network.routers03
latency=1
link_id=3
weight=1

[system.ruby.network.ext_links4]
type=SimpleExtLink
bandwidth_factor=16
eventq_index=0
ext_node=system.ruby.l1_cntrl4
int_node=system.ruby.network.routers04
latency=1
link_id=4
weight=1

[system.ruby.network.ext_links5]
type=SimpleExtLink
bandwidth_factor=16
eventq_index=0
ext_node=system.ruby.l1_cntrl5
int_node=system.ruby.network.routers05
latency=1
link_id=5
weight=1

[system.ruby.network.ext_links6]
type=SimpleExtLink
bandwidth_factor=16
eventq_index=0
ext_node=system.ruby.l1_cntrl6
int_node=system.ruby.network.routers06
latency=1
link_id=6
weight=1

[system.ruby.network.ext_links7]
type=SimpleExtLink
bandwidth_factor=16
eventq_index=0
ext_node=system.ruby.l1_cntrl7
int_node=system.ruby.network.routers07
latency=1
link_id=7
weight=1

[system.ruby.network.ext_links8]
type=SimpleExtLink
bandwidth_factor=16
eventq_index=0
ext_node=system.ruby.l2_cntrl0
int_node=system.ruby.network.routers08
latency=1
link_id=8
weight=1

[system.ruby.network.ext_links9]
type=SimpleExtLink
bandwidth_factor=16
eventq_index=0
ext_node=system.ruby.dir_cntrl0
int_node=system.ruby.network.routers09
latency=1
link_id=9
weight=1

[system.ruby.network.int_links0]
type=SimpleIntLink
bandwidth_factor=16
eventq_index=0
latency=1
link_id=10
node_a=system.ruby.network.routers00
node_b=system.ruby.network.routers10
weight=1

[system.ruby.network.int_links1]
type=SimpleIntLink
bandwidth_factor=16