[root]
type=Root
children=system
eventq_index=0
full_system=false
sim_quantum=0
time_sync_enable=false
time_sync_period=100000000000
time_sync_spin_threshold=100000000

[system]
type=System
children=clk_domain cp_cntrl0 cpu0 cpu1 cpu2 dir_cntrl0 dispatcher_coalescer dispatcher_tlb dvfs_handler l1_coalescer0 l1_coalescer1 l1_tlb0 l1_tlb1 l2_coalescer l2_tlb l3_coalescer l3_tlb mem_ctrls piobus ruby sqc_cntrl0 sqc_coalescer sqc_tlb sys_port_proxy tcc_cntrl0 tcp_cntrl0 tcp_cntrl1 voltage_domain
boot_osflags=a
cache_line_size=64
clk_domain=system.clk_domain
eventq_index=0
exit_on_work_items=false
init_param=0
kernel=
kernel_addr_check=true
load_addr_mask=1099511627775
load_offset=0
mem_mode=timing
mem_ranges=0:536870911
memories=system.mem_ctrls system.ruby.phys_mem
mmap_using_noreserve=false
multi_thread=false
num_work_ids=16
readfile=
symbolfile=
work_begin_ckpt_count=0
work_begin_cpu_id_exit=-1
work_begin_exit_count=0
work_cpus_ckpt_count=0
work_end_ckpt_count=0
work_end_exit_count=0
work_item_id=-1
system_port=system.sys_port_proxy.slave[0]

[system.clk_domain]
type=SrcClockDomain
clock=1000
domain_id=-1
eventq_index=0
init_perf_level=0
voltage_domain=system.voltage_domain

[system.cp_cntrl0]
type=CorePair_Controller
children=L1D0cache L1D1cache L1Icache L2cache mandatoryQueue probeToCore requestFromCore responseFromCore responseToCore sequencer sequencer1 triggerQueue unblockFromCore
L1D0cache=system.cp_cntrl0.L1D0cache
L1D1cache=system.cp_cntrl0.L1D1cache
L1Icache=system.cp_cntrl0.L1Icache
L2cache=system.cp_cntrl0.L2cache
buffer_size=0
clk_domain=system.clk_domain
cluster_id=0
eventq_index=0
issue_latency=120
l2_hit_latency=18
mandatoryQueue=system.cp_cntrl0.mandatoryQueue
number_of_TBEs=256
probeToCore=system.cp_cntrl0.probeToCore
recycle_latency=10
requestFromCore=system.cp_cntrl0.requestFromCore
responseFromCore=system.cp_cntrl0.responseFromCore
responseToCore=system.cp_cntrl0.responseToCore
ruby_system=system.ruby
send_evictions=true
sequencer=system.cp_cntrl0.sequencer
sequencer1=system.cp_cntrl0.sequencer1
system=system
transitions_per_cycle=32
triggerQueue=system.cp_cntrl0.triggerQueue
unblockFromCore=system.cp_cntrl0.unblockFromCore
version=0

[system.cp_cntrl0.L1D0cache]
type=RubyCache
children=replacement_policy
assoc=2
block_size=0
dataAccessLatency=1
dataArrayBanks=2
eventq_index=0
is_icache=false
replacement_policy=system.cp_cntrl0.L1D0cache.replacement_policy
resourceStalls=false
ruby_system=system.ruby
size=65536
start_index_bit=6
tagAccessLatency=1
tagArrayBanks=2

[system.cp_cntrl0.L1D0cache.replacement_policy]
type=PseudoLRUReplacementPolicy
assoc=2
block_size=64
eventq_index=0
size=65536

[system.cp_cntrl0.L1D1cache]
type=RubyCache
children=replacement_policy
assoc=2
block_size=0
dataAccessLatency=1
dataArrayBanks=2
eventq_index=0
is_icache=false
replacement_policy=system.cp_cntrl0.L1D1cache.replacement_policy
resourceStalls=false
ruby_system=system.ruby
size=65536
start_index_bit=6
tagAccessLatency=1
tagArrayBanks=2

[system.cp_cntrl0.L1D1cache.replacement_policy]
type=PseudoLRUReplacementPolicy
assoc=2
block_size=64
eventq_index=0
size=65536

[system.cp_cntrl0.L1Icache]
type=RubyCache
children=replacement_policy
assoc=2
block_size=0
dataAccessLatency=1
dataArrayBanks=2
eventq_index=0
is_icache=false
replacement_policy=system.cp_cntrl0.L1Icache.replacement_policy
resourceStalls=false
ruby_system=system.ruby
size=32768
start_index_bit=6
tagAccessLatency=1
tagArrayBanks=2

[system.cp_cntrl0.L1Icache.replacement_policy]
type=PseudoLRUReplacementPolicy
assoc=2
block_size=64
eventq_index=0
size=32768

[system.cp_cntrl0.L2cache]
type=RubyCache
children=replacement_policy
assoc=8
block_size=0
dataAccessLatency=1
dataArrayBanks=16
eventq_index=0
is_icache=false
replacement_policy=system.cp_cntrl0.L2cache.replacement_policy
resourceStalls=false
ruby_system=system.ruby
size=2097152
start_index_bit=6
tagAccessLatency=1
tagArrayBanks=16

[system.cp_cntrl0.L2cache.replacement_policy]
type=PseudoLRUReplacementPolicy
assoc=8
block_size=64
eventq_index=0
size=2097152

[system.cp_cntrl0.mandatoryQueue]
type=MessageBuffer
buffer_size=0
eventq_index=0
ordered=false
randomization=false

[system.cp_cntrl0.probeToCore]
type=MessageBuffer
buffer_size=0
eventq_index=0
ordered=false
randomization=false
slave=system.ruby.network.master[3]

[system.cp_cntrl0.requestFromCore]
type=MessageBuffer
buffer_size=0
eventq_index=0
ordered=false
randomization=false
master=system.ruby.network.slave[2]

[system.cp_cntrl0.responseFromCore]
type=MessageBuffer
buffer_size=0
eventq_index=0
ordered=false
randomization=false
master=system.ruby.network.slave[3]

[system.cp_cntrl0.responseToCore]
type=MessageBuffer
buffer_size=0
eventq_index=0
ordered=false
randomization=false
slave=system.ruby.network.master[4]

[system.cp_cntrl0.sequencer]
type=RubySequencer
clk_domain=system.clk_domain
coreid=0
dcache=system.cp_cntrl0.L1D0cache
dcache_hit_latency=1
deadlock_threshold=500000
eventq_index=0
icache=system.cp_cntrl0.L1Icache
icache_hit_latency=1
is_cpu_sequencer=true
max_outstanding_requests=16
no_retry_on_stall=false
ruby_system=system.ruby
support_data_reqs=true
support_inst_reqs=true
system=system
using_network_tester=false
using_ruby_tester=false
version=0
master=system.cpu0.interrupts.pio system.cpu0.interrupts.int_slave
mem_master_port=system.piobus.slave[0]
slave=system.cpu0.icache_port system.cpu0.dcache_port system.cpu0.itb.walker.port system.cpu0.dtb.walker.port system.cpu0.interrupts.int_master

[system.cp_cntrl0.sequencer1]
type=RubySequencer
clk_domain=system.clk_domain
coreid=1
dcache=system.cp_cntrl0.L1D1cache
dcache_hit_latency=1
deadlock_threshold=500000
eventq_index=0
icache=system.cp_cntrl0.L1Icache
icache_hit_latency=1
is_cpu_sequencer=true
max_outstanding_requests=16
no_retry_on_stall=false
ruby_system=system.ruby
support_data_reqs=true
support_inst_reqs=true
system=system
using_network_tester=false
using_ruby_tester=false
version=1

[system.cp_cntrl0.triggerQueue]
type=MessageBuffer
buffer_size=0
eventq_index=0
ordered=true
randomization=false

[system.cp_cntrl0.unblockFromCore]
type=MessageBuffer
buffer_size=0
eventq_index=0
ordered=false
randomization=false
master=system.ruby.network.slave[4]

[system.cpu0]
type=TimingSimpleCPU
children=apic_clk_domain clk_domain dtb interrupts isa itb tracer workload
branchPred=Null
checker=Null
clk_domain=system.cpu0.clk_domain
cpu_id=0
do_checkpoint_insts=true
do_quiesce=true
do_statistics_insts=true
dtb=system.cpu0.dtb
eventq_index=0
function_trace=false
function_trace_start=0
interrupts=system.cpu0.interrupts
isa=system.cpu0.isa
itb=system.cpu0.itb
max_insts_all_threads=0
max_insts_any_thread=0
max_loads_all_threads=0
max_loads_any_thread=0
numThreads=1
profile=0
progress_interval=0
simpoint_start_insts=
socket_id=0
switched_out=false
system=system
tracer=system.cpu0.tracer
workload=system.cpu0.workload
dcache_port=system.cp_cntrl0.sequencer.slave[1]
icache_port=system.cp_cntrl0.sequencer.slave[0]

[system.cpu0.apic_clk_domain]
type=DerivedClockDomain
clk_divider=16
clk_domain=system.cpu0.clk_domain
eventq_index=0

[system.cpu0.clk_domain]
type=SrcClockDomain
clock=500
domain_id=-1
eventq_index=0
init_perf_level=0
voltage_domain=system.voltage_domain

[system.cpu0.dtb]
type=X86TLB
children=walker
eventq_index=0
size=64
walker=system.cpu0.dtb.walker

[system.cpu0.dtb.walker]
type=X86PagetableWalker
clk_domain=system.cpu0.clk_domain
eventq_index=0
num_squash_per_cycle=4
system=system
port=system.cp_cntrl0.sequencer.slave[3]

[system.cpu0.interrupts]
type=X86LocalApic
clk_domain=system.cpu0.apic_clk_domain
eventq_index=0
int_latency=1000
pio_addr=2305843009213693952
pio_latency=100000
system=system
int_master=system.cp_cntrl0.sequencer.slave[4]
int_slave=system.cp_cntrl0.sequencer.master[1]
pio=system.cp_cntrl0.sequencer.master[0]

[system.cpu0.isa]
type=X86ISA
eventq_index=0

[system.cpu0.itb]
type=X86TLB
children=walker
eventq_index=0
size=64
walker=system.cpu0.itb.walker

[system.cpu0.itb.walker]
type=X86PagetableWalker
clk_domain=system.cpu0.clk_domain
eventq_index=0
num_squash_per_cycle=4
system=system
port=system.cp_cntrl0.sequencer.slave[2]

[system.cpu0.tracer]
type=ExeTracer
eventq_index=0

[system.cpu0.workload]
type=LiveProcess
cmd=gpu-hello
cwd=
drivers=system.cpu2.cl_driver
egid=100
env=
errout=cerr
euid=100
eventq_index=0
executable=/dist/m5/regression/test-progs/gpu-hello/bin/x86/linux/gpu-hello
gid=100
input=cin
kvmInSE=false
max_stack_size=67108864
output=cout
pid=100
ppid=99
simpoint=0
system=system
uid=100
useArchPT=false

[system.cpu1]
type=Shader
children=CUs0 CUs1 clk_domain
CUs=system.cpu1.CUs0 system.cpu1.CUs1
clk_domain=system.cpu1.clk_domain
cpu_pointer=system.cpu0
eventq_index=0
globalmem=65536
impl_kern_boundary_sync=true
n_wf=8
separate_acquire_release=false
timing=true
translation=false

[system.cpu1.CUs0]
type=ComputeUnit
children=ldsBus localDataStore vector_register_file0 vector_register_file1 vector_register_file2 vector_register_file3 wavefronts00 wavefronts01 wavefronts02 wavefronts03 wavefronts04 wavefronts05 wavefronts06 wavefronts07 wavefronts08 wavefronts09 wavefronts10 wavefronts11 wavefronts12 wavefronts13 wavefronts14 wavefronts15 wavefronts16 wavefronts17 wavefronts18 wavefronts19 wavefronts20 wavefronts21 wavefronts22 wavefronts23 wavefronts24 wavefronts25 wavefronts26 wavefronts27 wavefronts28 wavefronts29 wavefronts30 wavefronts31
clk_domain=system.cpu1.clk_domain
coalescer_to_vrf_bus_width=32
countPages=false
cu_id=0
debugSegFault=false
dpbypass_pipe_length=4
eventq_index=0
execPolicy=OLDEST-FIRST
functionalTLB=true
global_mem_queue_size=256
issue_period=4
localDataStore=system.cpu1.CUs0.localDataStore
localMemBarrier=false
local_mem_queue_size=256
mem_req_latency=9
mem_resp_latency=9
n_wf=8
num_SIMDs=4
num_global_mem_pipes=1
num_shared_mem_pipes=1
perLaneTLB=false
prefetch_depth=0
prefetch_prev_type=PF_PHASE
prefetch_stride=1
spbypass_pipe_length=4
system=system
vector_register_file=system.cpu1.CUs0.vector_register_file0 system.cpu1.CUs0.vector_register_file1 system.cpu1.CUs0.vector_register_file2 system.cpu1.CUs0.vector_register_file3
vrf_to_coalescer_bus_width=32
wavefronts=system.cpu1.CUs0.wavefronts00 system.cpu1.CUs0.wavefronts01 system.cpu1.CUs0.wavefronts02 system.cpu1.CUs0.wavefronts03 system.cpu1.CUs0.wavefronts04 system.cpu1.CUs0.wavefronts05 system.cpu1.CUs0.wavefronts06 system.cpu1.CUs0.wavefronts07 system.cpu1.CUs0.wavefronts08 system.cpu1.CUs0.wavefronts09 system.cpu1.CUs0.wavefronts10 system.cpu1.CUs0.wavefronts11 system.cpu1.CUs0.wavefronts12 system.cpu1.CUs0.wavefronts13 system.cpu1.CUs0.wavefronts14 system.cpu1.CUs0.wavefronts15 system.cpu1.CUs0.wavefronts16 system.cpu1.CUs0.wavefronts17 system.cpu1.CUs0.wavefronts18 system.cpu1.CUs0.wavefronts19 system.cpu1.CUs0.wavefronts20 system.cpu1.CUs0.wavefronts21 system.cpu1.CUs0.wavefronts22 system.cpu1.CUs0.wavefronts23 system.cpu1.CUs0.wavefronts24 system.cpu1.CUs0.wavefronts25 system.cpu1.CUs0.wavefronts26 system.cpu1.CUs0.wavefronts27 system.cpu1.CUs0.wavefronts28 system.cpu1.CUs0.wavefronts29 system.cpu1.CUs0.wavefronts30 system.cpu1.CUs0.wavefronts31
wfSize=64
xactCasMode=false
ldsPort=system.cpu1.CUs0.ldsBus.slave
memory_port=system.tcp_cntrl0.coalescer.slave[0] system.tcp_cntrl0.coalescer.slave[1] system.tcp_cntrl0.coalescer.slave[2] system.tcp_cntrl0.coalescer.slave[3] system.tcp_cntrl0.coalescer.slave[4] system.tcp_cntrl0.coalescer.slave[5] system.tcp_cntrl0.coalescer.slave[6] system.tcp_cntrl0.coalescer.slave[7] system.tcp_cntrl0.coalescer.slave[8] system.tcp_cntrl0.coalescer.slave[9] system.tcp_cntrl0.coalescer.slave[10] system.tcp_cntrl0.coalescer.slave[11] system.tcp_cntrl0.coalescer.slave[12] system.tcp_cntrl0.coalescer.slave[13] system.tcp_cntrl0.coalescer.slave[14] system.tcp_cntrl0.coalescer.slave[15] system.tcp_cntrl0.coalescer.slave[16] system.tcp_cntrl0.coalescer.slave[17] system.tcp_cntrl0.coalescer.slave[18] system.tcp_cntrl0.coalescer.slave[19] system.tcp_cntrl0.coalescer.slave[20] system.tcp_cntrl0.coalescer.slave[21] system.tcp_cntrl0.coalescer.slave[22] system.tcp_cntrl0.coalescer.slave[23] system.tcp_cntrl0.coalescer.slave[24] system.tcp_cntrl0.coalescer.slave[25] system.tcp_cntrl0.coalescer.slave[26] system.tcp_cntrl0.coalescer.slave[27] system.tcp_cntrl0.coalescer.slave[28] system.tcp_cntrl0.coalescer.slave[29] system.tcp_cntrl0.coalescer.slave[30] system.tcp_cntrl0.coalescer.slave[31] system.tcp_cntrl0.coalescer.slave[32] system.tcp_cntrl0.coalescer.slave[33] system.tcp_cntrl0.coalescer.slave[34] system.tcp_cntrl0.coalescer.slave[35] system.tcp_cntrl0.coalescer.slave[36] system.tcp_cntrl0.coalescer.slave[37] system.tcp_cntrl0.coalescer.slave[38] system.tcp_cntrl0.coalescer.slave[39] system.tcp_cntrl0.coalescer.slave[40] system.tcp_cntrl0.coalescer.slave[41] system.tcp_cntrl0.coalescer.slave[42] system.tcp_cntrl0.coalescer.slave[43] system.tcp_cntrl0.coalescer.slave[44] system.tcp_cntrl0.coalescer.slave[45] system.tcp_cntrl0.coalescer.slave[46] system.tcp_cntrl0.coalescer.slave[47] system.tcp_cntrl0.coalescer.slave[48] system.tcp_cntrl0.coalescer.slave[49] system.tcp_cntrl0.coalescer.slave[50] system.tcp_cntrl0.coalescer.slave[51] system.tcp_cntrl0.coalescer.slave[52] system.tcp_cntrl0.coalescer.slave[53] system.tcp_cntrl0.coalescer.slave[54] system.tcp_cntrl0.coalescer.slave[55] system.tcp_cntrl0.coalescer.slave[56] system.tcp_cntrl0.coalescer.slave[57] system.tcp_cntrl0.coalescer.slave[58] system.tcp_cntrl0.coalescer.slave[59] system.tcp_cntrl0.coalescer.slave[60] system.tcp_cntrl0.coalescer.slave[61] system.tcp_cntrl0.coalescer.slave[62] system.tcp_cntrl0.coalescer.slave[63]
sqc_port=system.sqc_cntrl0.sequencer.slave[0]
sqc_tlb_port=system.sqc_coalescer.slave[0]
translation_port=system.l1_coalescer0.slave[0]

[system.cpu1.CUs0.ldsBus]
type=Bridge
clk_domain=system.cpu1.clk_domain
delay=0
eventq_index=0
ranges=0:18446744073709551615
req_size=16
resp_size=16
master=system.cpu1.CUs0.localDataStore.cuPort
slave=system.cpu1.CUs0.ldsPort

[system.cpu1.CUs0.localDataStore]
type=LdsState
bankConflictPenalty=1
banks=32
clk_domain=system.cpu1.clk_domain
eventq_index=0
range=0:65535
size=65536
cuPort=system.cpu1.CUs0.ldsBus.master

[system.cpu1.CUs0.vector_register_file0]
type=VectorRegisterFile
eventq_index=0
min_alloc=4
num_regs_per_simd=2048
simd_id=0

[system.cpu1.CUs0.vector_register_file1]
type=VectorRegisterFile
eventq_index=0
min_alloc=4
num_regs_per_simd=2048
simd_id=1

[system.cpu1.CUs0.vector_register_file2]
type=VectorRegisterFile
eventq_index=0
min_alloc=4
num_regs_per_simd=2048
simd_id=2

[system.cpu1.CUs0.vector_register_file3]
type=VectorRegisterFile
eventq_index=0
min_alloc=4
num_regs_per_simd=2048
simd_id=3

[system.cpu1.CUs0.wavefronts00]
type=Wavefront
eventq_index=0
simdId=0
wf_slot_id=0

[system.cpu1.CUs0.wavefronts01]
type=Wavefront
eventq_index=0
simdId=0
wf_slot_id=1

[system.cpu1.CUs0.wavefronts02]
type=Wavefront
eventq_index=0
simdId=0
wf_slot_id=2

[system.cpu1.CUs0.wavefronts03]
type=Wavefront
eventq_index=0
simdId=0
wf_slot_id=3

[system.cpu1.CUs0.wavefronts04]
type=Wavefront
eventq_index=0
simdId=0
wf_slot_id=4

[system.cpu1.CUs0.wavefronts05]
type=Wavefront
eventq_index=0
simdId=0
wf_slot_id=5

[system.cpu1.CUs0.wavefronts06]
type=Wavefront
eventq_index=0
simdId=0
wf_slot_id=6

[system.cpu1.CUs0.wavefronts07]
type=Wavefront
eventq_index=0
simdId=0
wf_slot_id=7

[system.cpu1.CUs0.wavefronts08]
type=Wavefront
eventq_index=0
simdId=1
wf_slot_id=0

[system.cpu1.CUs0.wavefronts09]
type=Wavefront
eventq_index=0
simdId=1
wf_slot_id=1

[system.cpu1.CUs0.wavefronts10]
type=Wavefront
eventq_index=0
simdId=1
wf_slot_id=2

[system.cpu1.CUs0.wavefronts11]
type=Wavefront
eventq_index=0
simdId=1
wf_slot_id=3

[system.cpu1.CUs0.wavefronts12]
type=Wavefront
eventq_index=0
simdId=1
wf_slot_id=4

[system.cpu1.CUs0.wavefronts13]
type=Wavefront
eventq_index=0
simdId=1
wf_slot_id=5

[system.cpu1.CUs0.wavefronts14]
type=Wavefront
eventq_index=0
simdId=1
wf_slot_id=6

[system.cpu1.CUs0.wavefronts15]
type=Wavefront
eventq_index=0
simdId=1
wf_slot_id=7

[system.cpu1.CUs0.wavefronts16]
type=Wavefront
eventq_index=0
simdId=2
wf_slot_id=0

[system.cpu1.CUs0.wavefronts17]
type=Wavefront
eventq_index=0
simdId=2
wf_slot_id=1

[system.cpu1.CUs0.wavefronts18]
type=Wavefront
eventq_index=0
simdId=2
wf_slot_id=2

[system.cpu1.CUs0.wavefronts19]
type=Wavefront
eventq_index=0
simdId=2
wf_slot_id=3

[system.cpu1.CUs0.wavefronts20]
type=Wavefront
eventq_index=0
simdId=2
wf_slot_id=4

[system.cpu1.CUs0.wavefronts21]
type=Wavefront
eventq_index=0
simdId=2
wf_slot_id=5

[system.cpu1.CUs0.wavefronts22]
type=Wavefront
eventq_index=0
simdId=2
wf_slot_id=6

[system.cpu1.CUs0.wavefronts23]
type=Wavefront
eventq_index=0
simdId=2
wf_slot_id=7

[system.cpu1.CUs0.wavefronts24]
type=Wavefront
eventq_index=0
simdId=3
wf_slot_id=0

[system.cpu1.CUs0.wavefronts25]
type=Wavefront
eventq_index=0
simdId=3
wf_slot_id=1

[system.cpu1.CUs0.wavefronts26]
type=Wavefront
eventq_index=0
simdId=3
wf_slot_id=2

[system.cpu1.CUs0.wavefronts27]
type=Wavefront
eventq_index=0
simdId=3
wf_slot_id=3

[system.cpu1.CUs0.wavefronts28]
type=Wavefront
eventq_index=0
simdId=3
wf_slot_id=4

[system.cpu1.CUs0.wavefronts29]
type=Wavefront
eventq_index=0
simdId=3
wf_slot_id=5

[system.cpu1.CUs0.wavefronts30]
type=Wavefront
eventq_index=0
simdId=3
wf_slot_id=6

[system.cpu1.CUs0.wavefronts31]
type=Wavefront
eventq_index=0
simdId=3
wf_slot_id=7

[system.cpu1.CUs1]
type=ComputeUnit
children=ldsBus localDataStore vector_register_file0 vector_register_file1 vector_register_file2 vector_register_file3 wavefronts00 wavefronts01 wavefronts02 wavefronts03 wavefronts04 wavefronts05 wavefronts06 wavefronts07 wavefronts08 wavefronts09 wavefronts10 wavefronts11 wavefronts12 wavefronts13 wavefronts14 wavefronts15 wavefronts16 wavefronts17 wavefronts18 wavefronts19 wavefronts20 wavefronts21 wavefronts22 wavefronts23 wavefronts24 wavefronts25 wavefronts26 wavefronts27 wavefronts28 wavefronts29 wavefronts30 wavefronts31
clk_domain=system.cpu1.clk_domain
coalescer_to_vrf_bus_width=32
countPages=false
cu_id=1
debugSegFault=false
dpbypass_pipe_length=4
eventq_index=0
execPolicy=OLDEST-FIRST
functionalTLB=true
global_mem_queue_size=256
issue_period=4
localDataStore=system.cpu1.CUs1.localDataStore
localMemBarrier=false
local_mem_queue_size=256
mem_req_latency=9
mem_resp_latency=9
n_wf=8
num_SIMDs=4
num_global_mem_pipes=1
num_shared_mem_pipes=1
perLaneTLB=false
prefetch_depth=0
prefetch_prev_type=PF_PHASE
prefetch_stride=1
spbypass_pipe_length=4
system=system
vector_register_file=system.cpu1.CUs1.vector_register_file0 system.cpu1.CUs1.vector_register_file1 system.cpu1.CUs1.vector_register_file2 system.cpu1.CUs1.vector_register_file3
vrf_to_coalescer_bus_width=32
wavefronts=system.cpu1.CUs1.wavefronts00 system.cpu1.CUs1.wavefronts01 system.cpu1.CUs1.wavefronts02 system.cpu1.CUs1.wavefronts03 system.cpu1.CUs1.wavefronts04 system.cpu1.CUs1.wavefronts05 system.cpu1.CUs1.wavefronts06 system.cpu1.CUs1.wavefronts07 system.cpu1.CUs1.wavefronts08 system.cpu1.CUs1.wavefronts09 system.cpu1.CUs1.wavefronts10 system.cpu1.CUs1.wavefronts11 system.cpu1.CUs1.wavefronts12 system.cpu1.CUs1.wavefronts13 system.cpu1.CUs1.wavefronts14 system.cpu1.CUs1.wavefronts15 system.cpu1.CUs1.wavefronts16 system.cpu1.CUs1.wavefronts17 system.cpu1.CUs1.wavefronts18 system.cpu1.CUs1.wavefronts19 system.cpu1.CUs1.wavefronts20 system.cpu1.CUs1.wavefronts21 system.cpu1.CUs1.wavefronts22 system.cpu1.CUs1.wavefronts23 system.cpu1.CUs1.wavefronts24 system.cpu1.CUs1.wavefronts25 system.cpu1.CUs1.wavefronts26 system.cpu1.CUs1.wavefronts27 system.cpu1.CUs1.wavefronts28 system.cpu1.CUs1.wavefronts29 system.cpu1.CUs1.wavefronts30 system.cpu1.CUs1.wavefronts31
wfSize=64
xactCasMode=false
ldsPort=system.cpu1.CUs1.ldsBus.slave
memory_port=system.tcp_cntrl1.coalescer.slave[0] system.tcp_cntrl1.coalescer.slave[1] system.tcp_cntrl1.coalescer.slave[2] system.tcp_cntrl1.coalescer.slave[3] system.tcp_cntrl1.coalescer.slave[4] system.tcp_cntrl1.coalescer.slave[5] system.tcp_cntrl1.coalescer.slave[6] system.tcp_cntrl1.coalescer.slave[7] system.tcp_cntrl1.coalescer.slave[8] system.tcp_cntrl1.coalescer.slave[9] system.tcp_cntrl1.coalescer.slave[10] system.tcp_cntrl1.coalescer.slave[11] system.tcp_cntrl1.coalescer.slave[12] system.tcp_cntrl1.coalescer.slave[13] system.tcp_cntrl1.coalescer.slave[14] system.tcp_cntrl1.coalescer.slave[15] system.tcp_cntrl1.coalescer.slave[16] system.tcp_cntrl1.coalescer.slave[17] system.tcp_cntrl1.coalescer.slave[18] system.tcp_cntrl1.coalescer.slave[19] system.tcp_cntrl1.coalescer.slave[20] system.tcp_cntrl1.coalescer.slave[21] system.tcp_cntrl1.coalescer.slave[22] system.tcp_cntrl1.coalescer.slave[23] system.tcp_cntrl1.coalescer.slave[24] system.tcp_cntrl1.coalescer.slave[25] system.tcp_cntrl1.coalescer.slave[26] system.tcp_cntrl1.coalescer.slave[27] system.tcp_cntrl1.coalescer.slave[28] system.tcp_cntrl1.coalescer.slave[29] system.tcp_cntrl1.coalescer.slave[30] system.tcp_cntrl1.coalescer.slave[31] system.tcp_cntrl1.coalescer.slave[32] system.tcp_cntrl1.coalescer.slave[33] system.tcp_cntrl1.coalescer.slave[34] system.tcp_cntrl1.coalescer.slave[35] system.tcp_cntrl1.coalescer.slave[36] system.tcp_cntrl1.coalescer.slave[37] system.tcp_cntrl1.coalescer.slave[38] system.tcp_cntrl1.coalescer.slave[39] system.tcp_cntrl1.coalescer.slave[40] system.tcp_cntrl1.coalescer.slave[41] system.tcp_cntrl1.coalescer.slave[42] system.tcp_cntrl1.coalescer.slave[43] system.tcp_cntrl1.coalescer.slave[44] system.tcp_cntrl1.coalescer.slave[45] system.tcp_cntrl1.coalescer.slave[46] system.tcp_cntrl1.coalescer.slave[47] system.tcp_cntrl1.coalescer.slave[48] system.tcp_cntrl1.coalescer.slave[49] system.tcp_cntrl1.coalescer.slave[50] system.tcp_cntrl1.coalescer.slave[51] system.tcp_cntrl1.coalescer.slave[52] system.tcp_cntrl1.coalescer.slave[53] system.tcp_cntrl1.coalescer.slave[54] system.tcp_cntrl1.coalescer.slave[55] system.tcp_cntrl1.coalescer.slave[56] system.tcp_cntrl1.coalescer.slave[57] system.tcp_cntrl1.coalescer.slave[58] system.tcp_cntrl1.coalescer.slave[59] system.tcp_cntrl1.coalescer.slave[60] system.tcp_cntrl1.coalescer.slave[61] system.tcp_cntrl1.coalescer.slave[62] system.tcp_cntrl1.coalescer.slave[63]
sqc_port=system.sqc_cntrl0.sequencer.slave[1]
sqc_tlb_port=system.sqc_coalescer.slave[1]
translation_port=system.l1_coalescer1.slave[0]

[system.cpu1.CUs1.ldsBus]
type=Bridge
clk_domain=system.cpu1.clk_domain
delay=0
eventq_index=0
ranges=0:18446744073709551615
req_size=16
resp_size=16
master=system.cpu1.CUs1.localDataStore.cuPort
slave=system.cpu1.CUs1.ldsPort

[system.cpu1.CUs1.localDataStore]
type=LdsState
bankConflictPenalty=1
banks=32
clk_domain=system.cpu1.clk_domain
eventq_index=0
range=0:65535
size=65536
cuPort=system.cpu1.CUs1.ldsBus.master

[system.cpu1.CUs1.vector_register_file0]
type=VectorRegisterFile
eventq_index=0
min_alloc=4
num_regs_per_simd=2048
simd_id=0

[system.cpu1.CUs1.vector_register_file1]
type=VectorRegisterFile
eventq_index=0
min_alloc=4
num_regs_per_simd=2048
simd_id=1

[system.cpu1.CUs1.vector_register_file2]
type=VectorRegisterFile
eventq_index=0
min_alloc=4
num_regs_per_simd=2048
simd_id=2

[system.cpu1.CUs1.vector_register_file3]
type=VectorRegisterFile
eventq_index=0
min_alloc=4
num_regs_per_simd=2048
simd_id=3

[system.cpu1.CUs1.wavefronts00]
type=Wavefront
eventq_index=0
simdId=0
wf_slot_id=0

[system.cpu1.CUs1.wavefronts01]
type=Wavefront
eventq_index=0
simdId=0
wf_slot_id=1

[system.cpu1.CUs1.wavefronts02]
type=Wavefront
eventq_index=0
simdId=0
wf_slot_id=2

[system.cpu1.CUs1.wavefronts03]
type=Wavefront
eventq_index=0
simdId=0
wf_slot_id=3

[system.cpu1.CUs1.wavefronts04]
type=Wavefront
eventq_index=0
simdId=0
wf_slot_id=4

[system.cpu1.CUs1.wavefronts05]
type=Wavefront
eventq_index=0
simdId=0
wf_slot_id=5

[system.cpu1.CUs1.wavefronts06]
type=Wavefront
eventq_index=0
simdId=0
wf_slot_id=6

[system.cpu1.CUs1.wavefronts07]
type=Wavefront
eventq_index=0
simdId=0
wf_slot_id=7

[system.cpu1.CUs1.wavefronts08]
type=Wavefront
eventq_index=0
simdId=1
wf_slot_id=0

[system.cpu1.CUs1.wavefronts09]
type=Wavefront
eventq_index=0
simdId=1
wf_slot_id=1

[system.cpu1.CUs1.wavefronts10]
type=Wavefront
eventq_index=0
simdId=1
wf_slot_id=2

[system.cpu1.CUs1.wavefronts11]
type=Wavefront
eventq_index=0
simdId=1
wf_slot_id=3

[system.cpu1.CUs1.wavefronts12]
type=Wavefront
eventq_index=0
simdId=1
wf_slot_id=4

[system.cpu1.CUs1.wavefronts13]
type=Wavefront
eventq_index=0
simdId=1
wf_slot_id=5

[system.cpu1.CUs1.wavefronts14]
type=Wavefront
eventq_index=0
simdId=1
wf_slot_id=6

[system.cpu1.CUs1.wavefronts15]
type=Wavefront
eventq_index=0
simdId=1
wf_slot_id=7

[system.cpu1.CUs1.wavefronts16]
type=Wavefront
eventq_index=0
simdId=2
wf_slot_id=0

[system.cpu1.CUs1.wavefronts17]
type=Wavefront
eventq_index=0
simdId=2
wf_slot_id=1

[system.cpu1.CUs1.wavefronts18]
type=Wavefront
eventq_index=0
simdId=2
wf_slot_id=2

[system.cpu1.CUs1.wavefronts19]
type=Wavefront
eventq_index=0
simdId=2
wf_slot_id=3

[system.cpu1.CUs1.wavefronts20]
type=Wavefront
eventq_index=0
simdId=2
wf_slot_id=4

[system.cpu1.CUs1.wavefronts21]
type=Wavefront
eventq_index=0
simdId=2
wf_slot_id=5

[system.cpu1.CUs1.wavefronts22]
type=Wavefront
eventq_index=0
simdId=2
wf_slot_id=6

[system.cpu1.CUs1.wavefronts23]
type=Wavefront
eventq_index=0
simdId=2
wf_slot_id=7

[system.cpu1.CUs1.wavefronts24]
type=Wavefront
eventq_index=0
simdId=3
wf_slot_id=0

[system.cpu1.CUs1.wavefronts25]
type=Wavefront
eventq_index=0
simdId=3
wf_slot_id=1

[system.cpu1.CUs1.wavefronts26]
type=Wavefront
eventq_index=0
simdId=3
wf_slot_id=2

[system.cpu1.CUs1.wavefronts27]
type=Wavefront
eventq_index=0
simdId=3
wf_slot_id=3

[system.cpu1.CUs1.wavefronts28]
type=Wavefront
eventq_index=0
simdId=3
wf_slot_id=4

[system.cpu1.CUs1.wavefronts29]
type=Wavefront
eventq_index=0
simdId=3
wf_slot_id=5

[system.cpu1.CUs1.wavefronts30]
type=Wavefront
eventq_index=0
simdId=3
wf_slot_id=6

[system.cpu1.CUs1.wavefronts31]
type=Wavefront
eventq_index=0
simdId=3
wf_slot_id=7

[system.cpu1.clk_domain]
type=SrcClockDomain
children=voltage_domain
clock=1000
domain_id=-1
eventq_index=0
init_perf_level=0
voltage_domain=system.cpu1.clk_domain.voltage_domain

[system.cpu1.clk_domain.voltage_domain]
type=VoltageDomain
eventq_index=0
voltage=1.000000

[system.cpu2]
type=GpuDispatcher
children=cl_driver
cl_driver=system.cpu2.cl_driver
clk_domain=system.clk_domain
cpu=system.cpu0
eventq_index=0
pio_addr=8589934592
pio_latency=1000
shader_pointer=system.cpu1
system=system
dma=system.piobus.slave[1]
pio=system.piobus.master[0]
translation_port=system.dispatcher_coalescer.slave[0]

[system.cpu2.cl_driver]
type=ClDriver
codefile=/dist/m5/regression/test-progs/gpu-hello/bin/x86/linux/gpu-hello-kernel.asm
eventq_index=0
filename=hsa

[system.dir_cntrl0]
type=Directory_Controller
children=L3CacheMemory L3triggerQueue ProbeFilterMemory directory probeToCore requestFromCores responseFromCores responseFromMemory responseToCore triggerQueue unblockFromCores
CAB_TCC=false
L3CacheMemory=system.dir_cntrl0.L3CacheMemory
L3triggerQueue=system.dir_cntrl0.L3triggerQueue
ProbeFilterMemory=system.dir_cntrl0.ProbeFilterMemory
TCC_select_num_bits=0
buffer_size=0
clk_domain=system.clk_domain
cluster_id=0
directory=system.dir_cntrl0.directory
eventq_index=0
inclusiveDir=true
l3_hit_latency=15
noTCCdir=true
number_of_TBEs=2560
probeToCore=system.dir_cntrl0.probeToCore
recycle_latency=10
requestFromCores=system.dir_cntrl0.requestFromCores
responseFromCores=system.dir_cntrl0.responseFromCores
responseFromMemory=system.dir_cntrl0.responseFromMemory
responseToCore=system.dir_cntrl0.responseToCore
response_latency=30
ruby_system=system.ruby
system=system
to_memory_controller_latency=1
transitions_per_cycle=32
triggerQueue=system.dir_cntrl0.triggerQueue
unblockFromCores=system.dir_cntrl0.unblockFromCores
useL3OnWT=false
version=0
memory=system.mem_ctrls.port

[system.dir_cntrl0.L3CacheMemory]
type=RubyCache
children=replacement_policy
assoc=16
block_size=0
dataAccessLatency=20
dataArrayBanks=16.0
eventq_index=0
is_icache=false
replacement_policy=system.dir_cntrl0.L3CacheMemory.replacement_policy
resourceStalls=false
ruby_system=system.ruby
size=16777216
start_index_bit=6
tagAccessLatency=15
tagArrayBanks=16.0

[system.dir_cntrl0.L3CacheMemory.replacement_policy]
type=PseudoLRUReplacementPolicy
assoc=16
block_size=64
eventq_index=0
size=16777216

[system.dir_cntrl0.L3triggerQueue]
type=MessageBuffer
buffer_size=0
eventq_index=0
ordered=true
randomization=false

[system.dir_cntrl0.ProbeFilterMemory]
type=RubyCache
children=replacement_policy
assoc=8
block_size=64
dataAccessLatency=1
dataArrayBanks=256
eventq_index=0
is_icache=false
replacement_policy=system.dir_cntrl0.ProbeFilterMemory.replacement_policy
resourceStalls=true
ruby_system=system.ruby
size=1048576
start_index_bit=6
tagAccessLatency=8
tagArrayBanks=8

[system.dir_cntrl0.ProbeFilterMemory.replacement_policy]
type=PseudoLRUReplacementPolicy
assoc=8
block_size=64
eventq_index=0
size=1048576

[system.dir_cntrl0.directory]
type=RubyDirectoryMemory
eventq_index=0
numa_high_bit=5
size=536870912
version=0

[system.dir_cntrl0.probeToCore]
type=MessageBuffer
buffer_size=0
eventq_index=0
ordered=false
randomization=false
master=system.ruby.network.slave[0]

[system.dir_cntrl0.requestFromCores]
type=MessageBuffer
buffer_size=0
eventq_index=0
ordered=true
randomization=false
slave=system.ruby.network.master[0]

[system.dir_cntrl0.responseFromCores]
type=MessageBuffer
buffer_size=0
eventq_index=0
ordered=false
randomization=false
slave=system.ruby.network.master[1]

[system.dir_cntrl0.responseFromMemory]
type=MessageBuffer
buffer_size=0
eventq_index=0
ordered=false
randomization=false

[system.dir_cntrl0.responseToCore]
type=MessageBuffer
buffer_size=0
eventq_index=0
ordered=false
randomization=false
master=system.ruby.network.slave[1]

[system.dir_cntrl0.triggerQueue]
type=MessageBuffer
buffer_size=0
eventq_index=0
ordered=true
randomization=false

[system.dir_cntrl0.unblockFromCores]
type=MessageBuffer
buffer_size=0