[root]
type=Root
children=system
eventq_index=0
full_system=false
sim_quantum=0
time_sync_enable=false
time_sync_period=100000000000
time_sync_spin_threshold=100000000

[system]
type=System
children=clk_domain cpu cpu_clk_domain cpu_voltage_domain dvfs_handler l2 mem_ctrls membus switch_cpus switch_cpus_1 tol2bus voltage_domain
boot_osflags=a
cache_line_size=64
clk_domain=system.clk_domain
eventq_index=0
init_param=0
kernel=
kernel_addr_check=true
load_addr_mask=1099511627775
load_offset=0
mem_mode=atomic
mem_ranges=0:2147483647
memories=system.mem_ctrls
mmap_using_noreserve=false
multi_thread=false
num_work_ids=16
numa=false
readfile=
symbolfile=
work_begin_ckpt_count=0
work_begin_cpu_id_exit=-1
work_begin_exit_count=0
work_cpus_ckpt_count=0
work_end_ckpt_count=0
work_end_exit_count=0
work_item_id=-1
system_port=system.membus.slave[0]

[system.clk_domain]
type=SrcClockDomain
clock=1000
domain_id=-1
eventq_index=0
init_perf_level=0
voltage_domain=system.voltage_domain

[system.cpu]
type=AtomicSimpleCPU
children=apic_clk_domain dcache dtb dtb_walker_cache icache interrupts isa itb itb_walker_cache tracer workload
branchPred=Null
checker=Null
clk_domain=system.cpu_clk_domain
cpu_id=0
do_checkpoint_insts=true
do_quiesce=true
do_statistics_insts=true
dtb=system.cpu.dtb
eventq_index=0
fastmem=false
function_trace=false
function_trace_start=0
interrupts=system.cpu.interrupts
isa=system.cpu.isa
itb=system.cpu.itb
max_insts_all_threads=0
max_insts_any_thread=1
max_loads_all_threads=0
max_loads_any_thread=0
numThreads=1
numa=false
profile=0
progress_interval=0
simpoint_start_insts=
simulate_data_stalls=false
simulate_inst_stalls=false
socket_id=0
switched_out=false
system=system
tracer=system.cpu.tracer
width=1
workload=system.cpu.workload
dcache_port=system.cpu.dcache.cpu_side
icache_port=system.cpu.icache.cpu_side

[system.cpu.apic_clk_domain]
type=DerivedClockDomain
clk_divider=16
clk_domain=system.cpu_clk_domain
eventq_index=0

[system.cpu.dcache]
type=Cache
children=tags
addr_ranges=0:18446744073709551615
assoc=2
clk_domain=system.cpu_clk_domain
clusivity=mostly_incl
demand_mshr_reserve=1
eventq_index=0
forward_snoops=true
hit_latency=2
is_read_only=false
max_miss_count=0
mshrs=4
numa=false
prefetch_on_access=false
prefetcher=Null
response_latency=2
sequential_access=false
size=32768
system=system
tags=system.cpu.dcache.tags
tgts_per_mshr=20
write_buffers=8
writeback_clean=false
cpu_side=system.cpu.dcache_port
mem_side=system.tol2bus.slave[1]

[system.cpu.dcache.tags]
type=LRU
assoc=2
block_size=64
clk_domain=system.cpu_clk_domain
eventq_index=0
hit_latency=2
sequential_access=false
size=32768

[system.cpu.dtb]
type=X86TLB
children=walker
eventq_index=0
size=64
walker=system.cpu.dtb.walker

[system.cpu.dtb.walker]
type=X86PagetableWalker
clk_domain=system.cpu_clk_domain
eventq_index=0
num_squash_per_cycle=4
numa=false
system=system
port=system.cpu.dtb_walker_cache.cpu_side

[system.cpu.dtb_walker_cache]
type=Cache
children=tags
addr_ranges=0:18446744073709551615
assoc=2
clk_domain=system.cpu_clk_domain
clusivity=mostly_incl
demand_mshr_reserve=1
eventq_index=0
forward_snoops=false
hit_latency=2
is_read_only=false
max_miss_count=0
mshrs=10
numa=false
prefetch_on_access=false
prefetcher=Null
response_latency=2
sequential_access=false
size=1024
system=system
tags=system.cpu.dtb_walker_cache.tags
tgts_per_mshr=12
write_buffers=8
writeback_clean=false
cpu_side=system.cpu.dtb.walker.port
mem_side=system.tol2bus.slave[3]

[system.cpu.dtb_walker_cache.tags]
type=LRU
assoc=2
block_size=64
clk_domain=system.cpu_clk_domain
eventq_index=0
hit_latency=2
sequential_access=false
size=1024

[system.cpu.icache]
type=Cache
children=tags
addr_ranges=0:18446744073709551615
assoc=4
clk_domain=system.cpu_clk_domain
clusivity=mostly_incl
demand_mshr_reserve=1
eventq_index=0
forward_snoops=true
hit_latency=2
is_read_only=true
max_miss_count=0
mshrs=4
numa=false
prefetch_on_access=false
prefetcher=Null
response_latency=2
sequential_access=false
size=32768
system=system
tags=system.cpu.icache.tags
tgts_per_mshr=20
write_buffers=8
writeback_clean=true
cpu_side=system.cpu.icache_port
mem_side=system.tol2bus.slave[0]

[system.cpu.icache.tags]
type=LRU
assoc=4
block_size=64
clk_domain=system.cpu_clk_domain
eventq_index=0
hit_latency=2
sequential_access=false
size=32768

[system.cpu.interrupts]
type=X86LocalApic
clk_domain=system.cpu.apic_clk_domain
eventq_index=0
int_latency=1000
numa=false
pio_addr=2305843009213693952
pio_latency=100000
system=system
int_master=system.membus.slave[2]
int_slave=system.membus.master[1]
pio=system.membus.master[0]

[system.cpu.isa]
type=X86ISA
eventq_index=0

[system.cpu.itb]
type=X86TLB
children=walker
eventq_index=0
size=64
walker=system.cpu.itb.walker

[system.cpu.itb.walker]
type=X86PagetableWalker
clk_domain=system.cpu_clk_domain
eventq_index=0
num_squash_per_cycle=4
numa=false
system=system
port=system.cpu.itb_walker_cache.cpu_side

[system.cpu.itb_walker_cache]
type=Cache
children=tags
addr_ranges=0:18446744073709551615
assoc=2
clk_domain=system.cpu_clk_domain
clusivity=mostly_incl
demand_mshr_reserve=1
eventq_index=0
forward_snoops=false
hit_latency=2
is_read_only=false
max_miss_count=0
mshrs=10
numa=false
prefetch_on_access=false
prefetcher=Null
response_latency=2
sequential_access=false
size=1024
system=system
tags=system.cpu.itb_walker_cache.tags
tgts_per_mshr=12
write_buffers=8
writeback_clean=false
cpu_side=system.cpu.itb.walker.port
mem_side=system.tol2bus.slave[2]

[system.cpu.itb_walker_cache.tags]
type=LRU
assoc=2
block_size=64
clk_domain=system.cpu_clk_domain
eventq_index=0
hit_latency=2
sequential_access=false
size=1024

[system.cpu.tracer]
type=ExeTracer
eventq_index=0

[system.cpu.workload]
type=LiveProcess
cmd=/home/itecgo/Tools/CPU2006/429.mcf/run/run_base_ref_amd64-m64-gcc42-nn.0000/mcf_base.amd64-m64-gcc42-nn /home/itecgo/Tools/CPU2006/429.mcf/run/run_base_ref_amd64-m64-gcc42-nn.0000/inp.in
cwd=/home/itecgo/Tools/CPU2006/429.mcf/run/run_base_ref_amd64-m64-gcc42-nn.0000/
drivers=
egid=100
env=
errout=cerr
euid=100
eventq_index=0
executable=/home/itecgo/Tools/CPU2006/429.mcf/run/run_base_ref_amd64-m64-gcc42-nn.0000/mcf_base.amd64-m64-gcc42-nn
gid=100
input=cin
kvmInSE=false
max_stack_size=67108864
output=inp.out
pid=100
ppid=99
simpoint=0
system=system
uid=100
useArchPT=false

[system.cpu_clk_domain]
type=SrcClockDomain
clock=500
domain_id=-1
eventq_index=0
init_perf_level=0
voltage_domain=system.cpu_voltage_domain

[system.cpu_voltage_domain]
type=VoltageDomain
eventq_index=0
voltage=1.000000

[system.dvfs_handler]
type=DVFSHandler
domains=
enable=false
eventq_index=0
sys_clk_domain=system.clk_domain
transition_latency=100000000

[system.l2]
type=Cache
children=tags
addr_ranges=0:18446744073709551615
assoc=16
clk_domain=system.cpu_clk_domain
clusivity=mostly_incl
demand_mshr_reserve=1
eventq_index=0
forward_snoops=true
hit_latency=20
is_read_only=false
max_miss_count=0
mshrs=20
numa=false
prefetch_on_access=false
prefetcher=Null
response_latency=20
sequential_access=false
size=8388608
system=system
tags=system.l2.tags
tgts_per_mshr=12
write_buffers=8
writeback_clean=false
cpu_side=system.tol2bus.master[0]
mem_side=system.membus.slave[1]

[system.l2.tags]
type=LRU
assoc=16
block_size=64
clk_domain=system.cpu_clk_domain
eventq_index=0
hit_latency=20
sequential_access=false
size=8388608

[system.mem_ctrls]
type=DRAMCtrl
IDD0=0.075000
IDD02=0.000000
IDD2N=0.050000
IDD2N2=0.000000
IDD2P0=0.000000
IDD2P02=0.000000
IDD2P1=0.000000
IDD2P12=0.000000
IDD3N=0.057000
IDD3N2=0.000000
IDD3P0=0.000000
IDD3P02=0.000000
IDD3P1=0.000000
IDD3P12=0.000000
IDD4R=0.187000
IDD4R2=0.000000
IDD4W=0.165000
IDD4W2=0.000000
IDD5=0.220000
IDD52=0.000000
IDD6=0.000000
IDD62=0.000000
VDD=1.500000
VDD2=0.000000
activation_limit=4
addr_mapping=RoRaBaCoCh
bank_groups_per_rank=0
banks_per_rank=8
burst_length=8
channels=1
clk_domain=system.clk_domain
conf_table_reported=true
device_bus_width=8
device_rowbuffer_size=1024
device_size=536870912
devices_per_rank=8
dll=true
eventq_index=0
in_addr_map=true
max_accesses_per_row=16
mem_sched_policy=frfcfs
min_writes_per_switch=16
null=false
numa=false
page_policy=open_adaptive
range=0:2147483647
ranks_per_channel=2
read_buffer_size=32
static_backend_latency=10000
static_frontend_latency=10000
tBURST=5000
tCCD_L=0
tCK=1250
tCL=13750
tCS=2500
tRAS=35000
tRCD=13750
tREFI=7800000
tRFC=260000
tRP=13750
tRRD=6000
tRRD_L=0
tRTP=7500
tRTW=2500
tWR=15000
tWTR=7500
tXAW=30000
tXP=0
tXPDLL=0
tXS=0
tXSDLL=0
write_buffer_size=64
write_high_thresh_perc=85
write_low_thresh_perc=50
port=system.membus.master[2]

[system.membus]
type=CoherentXBar
clk_domain=system.clk_domain
eventq_index=0
forward_latency=4
frontend_latency=3
numa=false
response_latency=2
snoop_filter=Null
snoop_response_latency=4
system=system
use_default_range=false
width=16
master=system.cpu.interrupts.pio system.cpu.interrupts.int_slave system.mem_ctrls.port
slave=system.system_port system.l2.mem_side system.cpu.interrupts.int_master

[system.switch_cpus]
type=TimingSimpleCPU
children=dtb isa itb tracer
branchPred=Null
checker=Null
clk_domain=system.cpu_clk_domain
cpu_id=0
do_checkpoint_insts=true
do_quiesce=true
do_statistics_insts=true
dtb=system.switch_cpus.dtb
eventq_index=0
function_trace=false
function_trace_start=0
interrupts=
isa=system.switch_cpus.isa
itb=system.switch_cpus.itb
max_insts_all_threads=0
max_insts_any_thread=100000000
max_loads_all_threads=0
max_loads_any_thread=0
numThreads=1
numa=false
profile=0
progress_interval=0
simpoint_start_insts=
socket_id=0
switched_out=true
system=system
tracer=system.switch_cpus.tracer
workload=system.cpu.workload

[system.switch_cpus.dtb]
type=X86TLB
children=walker
eventq_index=0
size=64
walker=system.switch_cpus.dtb.walker

[system.switch_cpus.dtb.walker]
type=X86PagetableWalker
clk_domain=system.cpu_clk_domain
eventq_index=0
num_squash_per_cycle=4
numa=false
system=system

[system.switch_cpus.isa]
type=X86ISA
eventq_index=0

[system.switch_cpus.itb]
type=X86TLB
children=walker
eventq_index=0
size=64
walker=system.switch_cpus.itb.walker

[system.switch_cpus.itb.walker]
type=X86PagetableWalker
clk_domain=system.cpu_clk_domain
eventq_index=0
num_squash_per_cycle=4
numa=false
system=system

[system.switch_cpus.tracer]
type=ExeTracer
eventq_index=0

[system.switch_cpus_1]
type=DerivO3CPU
children=branchPred dtb fuPool isa itb tracer
LFSTSize=1024
LQEntries=32
LSQCheckLoads=true
LSQDepCheckShift=4
SQEntries=32
SSITSize=1024
activity=0
backComSize=5
branchPred=system.switch_cpus_1.branchPred
cachePorts=200
checker=Null
clk_domain=system.cpu_clk_domain
commitToDecodeDelay=1
commitToFetchDelay=1
commitToIEWDelay=1
commitToRenameDelay=1
commitWidth=8
cpu_id=0
decodeToFetchDelay=1
decodeToRenameDelay=1
decodeWidth=8
dispatchWidth=8
do_checkpoint_insts=true
do_quiesce=true
do_statistics_insts=true
dtb=system.switch_cpus_1.dtb
eventq_index=0
fetchBufferSize=64
fetchQueueSize=32
fetchToDecodeDelay=1
fetchTrapLatency=1
fetchWidth=8
forwardComSize=5
fuPool=system.switch_cpus_1.fuPool
function_trace=false
function_trace_start=0
iewToCommitDelay=1
iewToDecodeDelay=1
iewToFetchDelay=1
iewToRenameDelay=1
interrupts=
isa=system.switch_cpus_1.isa
issueToExecuteDelay=1
issueWidth=8
itb=system.switch_cpus_1.itb
max_insts_all_threads=0
max_insts_any_thread=200000000
max_loads_all_threads=0
max_loads_any_thread=0
needsTSO=true
numIQEntries=64
numPhysCCRegs=1280
numPhysFloatRegs=256
numPhysIntRegs=256
numROBEntries=192
numRobs=1
numThreads=1
numa=false
profile=0
progress_interval=0
renameToDecodeDelay=1
renameToFetchDelay=1
renameToIEWDelay=2
renameToROBDelay=1
renameWidth=8
simpoint_start_insts=
smtCommitPolicy=RoundRobin
smtFetchPolicy=SingleThread
smtIQPolicy=Partitioned
smtIQThreshold=100
smtLSQPolicy=Partitioned
smtLSQThreshold=100
smtNumFetchingThreads=1
smtROBPolicy=Partitioned
smtROBThreshold=100
socket_id=0
squashWidth=8
store_set_clear_period=250000
switched_out=true
system=system
tracer=system.switch_cpus_1.tracer
trapLatency=13
wbWidth=8
workload=system.cpu.workload

[system.switch_cpus_1.branchPred]
type=TournamentBP
BTBEntries=4096
BTBTagSize=16
RASSize=16
choiceCtrBits=2
choicePredictorSize=8192
eventq_index=0
globalCtrBits=2
globalPredictorSize=8192
instShiftAmt=2
localCtrBits=2
localHistoryTableSize=2048
localPredictorSize=2048
numThreads=1

[system.switch_cpus_1.dtb]
type=X86TLB
children=walker
eventq_index=0
size=64
walker=system.switch_cpus_1.dtb.walker

[system.switch_cpus_1.dtb.walker]
type=X86PagetableWalker
clk_domain=system.cpu_clk_domain
eventq_index=0
num_squash_per_cycle=4
numa=false
system=system

[system.switch_cpus_1.fuPool]
type=FUPool
children=FUList0 FUList1 FUList2 FUList3 FUList4 FUList5 FUList6 FUList7 FUList8
FUList=system.switch_cpus_1.fuPool.FUList0 system.switch_cpus_1.fuPool.FUList1 system.switch_cpus_1.fuPool.FUList2 system.switch_cpus_1.fuPool.FUList3 system.switch_cpus_1.fuPool.FUList4 system.switch_cpus_1.fuPool.FUList5 system.switch_cpus_1.fuPool.FUList6 system.switch_cpus_1.fuPool.FUList7 system.switch_cpus_1.fuPool.FUList8
eventq_index=0

[system.switch_cpus_1.fuPool.FUList0]
type=FUDesc
children=opList
count=6
eventq_index=0
opList=system.switch_cpus_1.fuPool.FUList0.opList

[system.switch_cpus_1.fuPool.FUList0.opList]
type=OpDesc
eventq_index=0
opClass=IntAlu
opLat=1
pipelined=true

[system.switch_cpus_1.fuPool.FUList1]
type=FUDesc
children=opList0 opList1
count=2
eventq_index=0
opList=system.switch_cpus_1.fuPool.FUList1.opList0 system.switch_cpus_1.fuPool.FUList1.opList1

[system.switch_cpus_1.fuPool.FUList1.opList0]
type=OpDesc
eventq_index=0
opClass=IntMult
opLat=3
pipelined=true

[system.switch_cpus_1.fuPool.FUList1.opList1]
type=OpDesc
eventq_index=0
opClass=IntDiv
opLat=1
pipelined=false

[system.switch_cpus_1.fuPool.FUList2]
type=FUDesc
children=opList0 opList1 opList2
count=4
eventq_index=0
opList=system.switch_cpus_1.fuPool.FUList2.opList0 system.switch_cpus_1.fuPool.FUList2.opList1 system.switch_cpus_1.fuPool.FUList2.opList2

[system.switch_cpus_1.fuPool.FUList2.opList0]
type=OpDesc
eventq_index=0
opClass=FloatAdd
opLat=2
pipelined=true

[system.switch_cpus_1.fuPool.FUList2.opList1]
type=OpDesc
eventq_index=0
opClass=FloatCmp
opLat=2
pipelined=true

[system.switch_cpus_1.fuPool.FUList2.opList2]
type=OpDesc
eventq_index=0
opClass=FloatCvt
opLat=2
pipelined=true

[system.switch_cpus_1.fuPool.FUList3]
type=FUDesc
children=opList0 opList1 opList2
count=2
eventq_index=0
opList=system.switch_cpus_1.fuPool.FUList3.opList0 system.switch_cpus_1.fuPool.FUList3.opList1 system.switch_cpus_1.fuPool.FUList3.opList2

[system.switch_cpus_1.fuPool.FUList3.opList0]
type=OpDesc
eventq_index=0
opClass=FloatMult
opLat=4
pipelined=true

[system.switch_cpus_1.fuPool.FUList3.opList1]
type=OpDesc
eventq_index=0
opClass=FloatDiv
opLat=12
pipelined=false

[system.switch_cpus_1.fuPool.FUList3.opList2]
type=OpDesc
eventq_index=0
opClass=FloatSqrt
opLat=24
pipelined=false

[system.switch_cpus_1.fuPool.FUList4]
type=FUDesc
children=opList
count=0
eventq_index=0
opList=system.switch_cpus_1.fuPool.FUList4.opList

[system.switch_cpus_1.fuPool.FUList4.opList]
type=OpDesc
eventq_index=0
opClass=MemRead
opLat=1
pipelined=true

[system.switch_cpus_1.fuPool.FUList5]
type=FUDesc
children=opList00 opList01 opList02 opList03 opList04 opList05 opList06 opList07 opList08 opList09 opList10 opList11 opList12 opList13 opList14 opList15 opList16 opList17 opList18 opList19
count=4
eventq_index=0
opList=system.switch_cpus_1.fuPool.FUList5.opList00 system.switch_cpus_1.fuPool.FUList5.opList01 system.switch_cpus_1.fuPool.FUList5.opList02 system.switch_cpus_1.fuPool.FUList5.opList03 system.switch_cpus_1.fuPool.FUList5.opList04 system.switch_cpus_1.fuPool.FUList5.opList05 system.switch_cpus_1.fuPool.FUList5.opList06 system.switch_cpus_1.fuPool.FUList5.opList07 system.switch_cpus_1.fuPool.FUList5.opList08 system.switch_cpus_1.fuPool.FUList5.opList09 system.switch_cpus_1.fuPool.FUList5.opList10 system.switch_cpus_1.fuPool.FUList5.opList11 system.switch_cpus_1.fuPool.FUList5.opList12 system.switch_cpus_1.fuPool.FUList5.opList13 system.switch_cpus_1.fuPool.FUList5.opList14 system.switch_cpus_1.fuPool.FUList5.opList15 system.switch_cpus_1.fuPool.FUList5.opList16 system.switch_cpus_1.fuPool.FUList5.opList17 system.switch_cpus_1.fuPool.FUList5.opList18 system.switch_cpus_1.fuPool.FUList5.opList19

[system.switch_cpus_1.fuPool.FUList5.opList00]
type=OpDesc
eventq_index=0
opClass=SimdAdd
opLat=1
pipelined=true

[system.switch_cpus_1.fuPool.FUList5.opList01]
type=OpDesc
eventq_index=0
opClass=SimdAddAcc
opLat=1
pipelined=true

[system.switch_cpus_1.fuPool.FUList5.opList02]
type=OpDesc
eventq_index=0
opClass=SimdAlu
opLat=1
pipelined=true

[system.switch_cpus_1.fuPool.FUList5.opList03]
type=OpDesc
eventq_index=0
opClass=SimdCmp
opLat=1
pipelined=true

[system.switch_cpus_1.fuPool.FUList5.opList04]
type=OpDesc
eventq_index=0
opClass=SimdCvt
opLat=1
pipelined=true

[system.switch_cpus_1.fuPool.FUList5.opList05]
type=OpDesc
eventq_index=0
opClass=SimdMisc
opLat=1
pipelined=true

[system.switch_cpus_1.fuPool.FUList5.opList06]
type=OpDesc
eventq_index=0
opClass=SimdMult
opLat=1
pipelined=true

[system.switch_cpus_1.fuPool.FUList5.opList07]
type=OpDesc
eventq_index=0
opClass=SimdMultAcc
opLat=1
pipelined=true

[system.switch_cpus_1.fuPool.FUList5.opList08]
type=OpDesc
eventq_index=0
opClass=SimdShift
opLat=1
pipelined=true

[system.switch_cpus_1.fuPool.FUList5.opList09]
type=OpDesc
eventq_index=0
opClass=SimdShiftAcc
opLat=1
pipelined=true

[system.switch_cpus_1.fuPool.FUList5.opList10]
type=OpDesc
eventq_index=0
opClass=SimdSqrt
opLat=1
pipelined=true

[system.switch_cpus_1.fuPool.FUList5.opList11]
type=OpDesc
eventq_index=0
opClass=SimdFloatAdd
opLat=1
pipelined=true

[system.switch_cpus_1.fuPool.FUList5.opList12]
type=OpDesc
eventq_index=0
opClass=SimdFloatAlu
opLat=1
pipelined=true

[system.switch_cpus_1.fuPool.FUList5.opList13]
type=OpDesc
eventq_index=0
opClass=SimdFloatCmp
opLat=1
pipelined=true

[system.switch_cpus_1.fuPool.FUList5.opList14]
type=OpDesc
eventq_index=0
opClass=SimdFloatCvt
opLat=1
pipelined=true

[system.switch_cpus_1.fuPool.FUList5.opList15]
type=OpDesc
eventq_index=0
opClass=SimdFloatDiv
opLat=1
pipelined=true

[system.switch_cpus_1.fuPool.FUList5.opList16]
type=OpDesc
eventq_index=0
opClass=SimdFloatMisc
opLat=1
pipelined=true

[system.switch_cpus_1.fuPool.FUList5.opList17]
type=OpDesc
eventq_index=0
opClass=SimdFloatMult
opLat=1
pipelined=true

[system.switch_cpus_1.fuPool.FUList5.opList18]
type=OpDesc
eventq_index=0
opClass=SimdFloatMultAcc
opLat=1
pipelined=true

[system.switch_cpus_1.fuPool.FUList5.opList19]
type=OpDesc
eventq_index=0
opClass=SimdFloatSqrt
opLat=1
pipelined=true

[system.switch_cpus_1.fuPool.FUList6]
type=FUDesc
children=opList
count=0
eventq_index=0
opList=system.switch_cpus_1.fuPool.FUList6.opList

[system.switch_cpus_1.fuPool.FUList6.opList]
type=OpDesc
eventq_index=0
opClass=MemWrite
opLat=1
pipelined=true

[system.switch_cpus_1.fuPool.FUList7]
type=FUDesc
children=opList0 opList1
count=4
eventq_index=0
opList=system.switch_cpus_1.fuPool.FUList7.opList0 system.switch_cpus_1.fuPool.FUList7.opList1

[system.switch_cpus_1.fuPool.FUList7.opList0]
type=OpDesc
eventq_index=0
opClass=MemRead
opLat=1
pipelined=true

[system.switch_cpus_1.fuPool.FUList7.opList1]
type=OpDesc
eventq_index=0
opClass=MemWrite
opLat=1
pipelined=true

[system.switch_cpus_1.fuPool.FUList8]
type=FUDesc
children=opList
count=1
eventq_index=0
opList=system.switch_cpus_1.fuPool.FUList8.opList

[system.switch_cpus_1.fuPool.FUList8.opList]
type=OpDesc
eventq_index=0
opClass=IprAccess
opLat=3
pipelined=false

[system.switch_cpus_1.isa]
type=X86ISA
eventq_index=0

[system.switch_cpus_1.itb]
type=X86TLB
children=walker
eventq_index=0
size=64
walker=system.switch_cpus_1.itb.walker

[system.switch_cpus_1.itb.walker]
type=X86PagetableWalker
clk_domain=system.cpu_clk_domain
eventq_index=0
num_squash_per_cycle=4
numa=false
system=system

[system.switch_cpus_1.tracer]
type=ExeTracer
eventq_index=0

[system.tol2bus]
type=CoherentXBar
children=snoop_filter
clk_domain=system.cpu_clk_domain
eventq_index=0
forward_latency=0
frontend_latency=1
numa=false
response_latency=1
snoop_filter=system.tol2bus.snoop_filter
snoop_response_latency=1
system=system
use_default_range=false
width=32
master=system.l2.cpu_side
slave=system.cpu.icache.mem_side system.cpu.dcache.mem_side system.cpu.itb_walker_cache.mem_side system.cpu.dtb_walker_cache.mem_side

[system.tol2bus.snoop_filter]
type=SnoopFilter
eventq_index=0
lookup_latency=0
max_capacity=8388608
system=system

[system.voltage_domain]
type=VoltageDomain
eventq_index=0
voltage=1.000000

