[root]
type=Root
children=system
eventq_index=0
full_system=false
sim_quantum=0
time_sync_enable=false
time_sync_period=100000000
time_sync_spin_threshold=100000

[system]
type=System
children=clk_domain cpu dvfs_handler mem_ctrls ruby sys_port_proxy voltage_domain
boot_osflags=a
cache_line_size=64
clk_domain=system.clk_domain
eventq_index=0
exit_on_work_items=false
init_param=0
kernel=
kernel_addr_check=true
load_addr_mask=1099511627775
load_offset=0
mem_mode=timing
mem_ranges=0:268435455
memories=system.mem_ctrls
mmap_using_noreserve=false
multi_thread=false
num_work_ids=16
readfile=
symbolfile=
thermal_components=
thermal_model=Null
work_begin_ckpt_count=0
work_begin_cpu_id_exit=-1
work_begin_exit_count=0
work_cpus_ckpt_count=0
work_end_ckpt_count=0
work_end_exit_count=0
work_item_id=-1
system_port=system.sys_port_proxy.slave[0]

[system.clk_domain]
type=SrcClockDomain
clock=1
domain_id=-1
eventq_index=0
init_perf_level=0
voltage_domain=system.voltage_domain

[system.cpu]
type=TimingSimpleCPU
children=clk_domain dtb interrupts isa itb tracer workload
branchPred=Null
checker=Null
clk_domain=system.cpu.clk_domain
cpu_id=0
do_checkpoint_insts=true
do_quiesce=true
do_statistics_insts=true
dtb=system.cpu.dtb
eventq_index=0
function_trace=false
function_trace_start=0
interrupts=system.cpu.interrupts
isa=system.cpu.isa
itb=system.cpu.itb
max_insts_all_threads=0
max_insts_any_thread=0
max_loads_all_threads=0
max_loads_any_thread=0
numThreads=1
profile=0
progress_interval=0
simpoint_start_insts=
socket_id=0
switched_out=false
system=system
tracer=system.cpu.tracer
workload=system.cpu.workload
dcache_port=system.ruby.l1_cntrl0.sequencer.slave[1]
icache_port=system.ruby.l1_cntrl0.sequencer.slave[0]

[system.cpu.clk_domain]
type=SrcClockDomain
clock=1
domain_id=-1
eventq_index=0
init_perf_level=0
voltage_domain=system.voltage_domain

[system.cpu.dtb]
type=AlphaTLB
eventq_index=0
size=64

[system.cpu.interrupts]
type=AlphaInterrupts
eventq_index=0

[system.cpu.isa]
type=AlphaISA
eventq_index=0
system=system

[system.cpu.itb]
type=AlphaTLB
eventq_index=0
size=48

[system.cpu.tracer]
type=ExeTracer
eventq_index=0

[system.cpu.workload]
type=LiveProcess
cmd=hello
cwd=
drivers=
egid=100
env=
errout=cerr
euid=100
eventq_index=0
executable=/home/stever/hg/m5sim.org/gem5/tests/test-progs/hello/bin/alpha/linux/hello
gid=100
input=cin
kvmInSE=false
max_stack_size=67108864
output=cout
pid=100
ppid=99
simpoint=0
system=system
uid=100
useArchPT=false

[system.dvfs_handler]
type=DVFSHandler
domains=
enable=false
eventq_index=0
sys_clk_domain=system.clk_domain
transition_latency=100000

[system.mem_ctrls]
type=DRAMCtrl
IDD0=0.075000
IDD02=0.000000
IDD2N=0.050000
IDD2N2=0.000000
IDD2P0=0.000000
IDD2P02=0.000000
IDD2P1=0.000000
IDD2P12=0.000000
IDD3N=0.057000
IDD3N2=0.000000
IDD3P0=0.000000
IDD3P02=0.000000
IDD3P1=0.000000
IDD3P12=0.000000
IDD4R=0.187000
IDD4R2=0.000000
IDD4W=0.165000
IDD4W2=0.000000
IDD5=0.220000
IDD52=0.000000
IDD6=0.000000
IDD62=0.000000
VDD=1.500000
VDD2=0.000000
activation_limit=4
addr_mapping=RoRaBaCoCh
bank_groups_per_rank=0
banks_per_rank=8
burst_length=8
channels=1
clk_domain=system.clk_domain
conf_table_reported=true
device_bus_width=8
device_rowbuffer_size=1024
device_size=536870912
devices_per_rank=8
dll=true
eventq_index=0
in_addr_map=true
max_accesses_per_row=16
mem_sched_policy=frfcfs
min_writes_per_switch=16
null=false
page_policy=open_adaptive
range=0:268435455
ranks_per_channel=2
read_buffer_size=32
static_backend_latency=10
static_frontend_latency=10
tBURST=5
tCCD_L=0
tCK=1
tCL=14
tCS=3
tRAS=35
tRCD=14
tREFI=7800
tRFC=260
tRP=14
tRRD=6
tRRD_L=0
tRTP=8
tRTW=3
tWR=15
tWTR=8
tXAW=30
tXP=0
tXPDLL=0
tXS=0
tXSDLL=0
write_buffer_size=64
write_high_thresh_perc=85
write_low_thresh_perc=50
port=system.ruby.dir_cntrl0.memory

[system.ruby]
type=RubySystem
children=clk_domain dir_cntrl0 l1_cntrl0 l2_cntrl0 memctrl_clk_domain network
access_backing_store=false
all_instructions=false
block_size_bytes=64
clk_domain=system.ruby.clk_domain
eventq_index=0
hot_lines=false
memory_size_bits=48
num_of_sequencers=1
number_of_virtual_networks=3
phys_mem=Null
randomization=false

[system.ruby.clk_domain]
type=SrcClockDomain
clock=1
domain_id=-1
eventq_index=0
init_perf_level=0
voltage_domain=system.voltage_domain

[system.ruby.dir_cntrl0]
type=Directory_Controller
children=directory requestToDir responseFromDir responseFromMemory responseToDir
buffer_size=0
clk_domain=system.ruby.clk_domain
cluster_id=0
directory=system.ruby.dir_cntrl0.directory
directory_latency=6
eventq_index=0
number_of_TBEs=256
recycle_latency=10
requestToDir=system.ruby.dir_cntrl0.requestToDir
responseFromDir=system.ruby.dir_cntrl0.responseFromDir
responseFromMemory=system.ruby.dir_cntrl0.responseFromMemory
responseToDir=system.ruby.dir_cntrl0.responseToDir
ruby_system=system.ruby
system=system
to_mem_ctrl_latency=1
transitions_per_cycle=4
version=0
memory=system.mem_ctrls.port

[system.ruby.dir_cntrl0.directory]
type=RubyDirectoryMemory
eventq_index=0
numa_high_bit=5
size=268435456
version=0

[system.ruby.dir_cntrl0.requestToDir]
type=MessageBuffer
buffer_size=0
eventq_index=0
ordered=false
randomization=false
slave=system.ruby.network.master[5]

[system.ruby.dir_cntrl0.responseFromDir]
type=MessageBuffer
buffer_size=0
eventq_index=0
ordered=false
randomization=false
master=system.ruby.network.slave[6]

[system.ruby.dir_cntrl0.responseFromMemory]
type=MessageBuffer
buffer_size=0
eventq_index=0
ordered=false
randomization=false

[system.ruby.dir_cntrl0.responseToDir]
type=MessageBuffer
buffer_size=0
eventq_index=0
ordered=false
randomization=false
slave=system.ruby.network.master[6]

[system.ruby.l1_cntrl0]
type=L1Cache_Controller
children=L1Dcache L1Icache mandatoryQueue optionalQueue prefetcher requestFromL1Cache requestToL1Cache responseFromL1Cache responseToL1Cache sequencer unblockFromL1Cache
L1Dcache=system.ruby.l1_cntrl0.L1Dcache
L1Icache=system.ruby.l1_cntrl0.L1Icache
buffer_size=0
clk_domain=system.cpu.clk_domain
cluster_id=0
enable_prefetch=false
eventq_index=0
l1_request_latency=2
l1_response_latency=2
l2_select_num_bits=0
mandatoryQueue=system.ruby.l1_cntrl0.mandatoryQueue
number_of_TBEs=256
optionalQueue=system.ruby.l1_cntrl0.optionalQueue
prefetcher=system.ruby.l1_cntrl0.prefetcher
recycle_latency=10
requestFromL1Cache=system.ruby.l1_cntrl0.requestFromL1Cache
requestToL1Cache=system.ruby.l1_cntrl0.requestToL1Cache
responseFromL1Cache=system.ruby.l1_cntrl0.responseFromL1Cache
responseToL1Cache=system.ruby.l1_cntrl0.responseToL1Cache
ruby_system=system.ruby
send_evictions=false
sequencer=system.ruby.l1_cntrl0.sequencer
system=system
to_l2_latency=1
transitions_per_cycle=4
unblockFromL1Cache=system.ruby.l1_cntrl0.unblockFromL1Cache
version=0

[system.ruby.l1_cntrl0.L1Dcache]
type=RubyCache
children=replacement_policy
assoc=2
block_size=0
dataAccessLatency=1
dataArrayBanks=1
eventq_index=0
is_icache=false
replacement_policy=system.ruby.l1_cntrl0.L1Dcache.replacement_policy
resourceStalls=false
ruby_system=system.ruby
size=256
start_index_bit=6
tagAccessLatency=1
tagArrayBanks=1

[system.ruby.l1_cntrl0.L1Dcache.replacement_policy]
type=PseudoLRUReplacementPolicy
assoc=2
block_size=64
eventq_index=0
size=256

[system.ruby.l1_cntrl0.L1Icache]
type=RubyCache
children=replacement_policy
assoc=2
block_size=0
dataAccessLatency=1
dataArrayBanks=1
eventq_index=0
is_icache=true
replacement_policy=system.ruby.l1_cntrl0.L1Icache.replacement_policy
resourceStalls=false
ruby_system=system.ruby
size=256
start_index_bit=6
tagAccessLatency=1
tagArrayBanks=1

[system.ruby.l1_cntrl0.L1Icache.replacement_policy]
type=PseudoLRUReplacementPolicy
assoc=2
block_size=64
eventq_index=0
size=256

[system.ruby.l1_cntrl0.mandatoryQueue]
type=MessageBuffer
buffer_size=0
eventq_index=0
ordered=false
randomization=false

[system.ruby.l1_cntrl0.optionalQueue]
type=MessageBuffer
buffer_size=0
eventq_index=0
ordered=false
randomization=false

[system.ruby.l1_cntrl0.prefetcher]
type=Prefetcher
cross_page=false
eventq_index=0
nonunit_filter=8
num_startup_pfs=1
num_streams=4
pf_per_stream=1
sys=system
train_misses=4
unit_filter=8

[system.ruby.l1_cntrl0.requestFromL1Cache]
type=MessageBuffer
buffer_size=0
eventq_index=0
ordered=false
randomization=false
master=system.ruby.network.slave[0]

[system.ruby.l1_cntrl0.requestToL1Cache]
type=MessageBuffer
buffer_size=0
eventq_index=0
ordered=false
randomization=false
slave=system.ruby.network.master[0]

[system.ruby.l1_cntrl0.responseFromL1Cache]
type=MessageBuffer
buffer_size=0
eventq_index=0
ordered=false
randomization=false
master=system.ruby.network.slave[1]

[system.ruby.l1_cntrl0.responseToL1Cache]
type=MessageBuffer
buffer_size=0
eventq_index=0
ordered=false
randomization=false
slave=system.ruby.network.master[1]

[system.ruby.l1_cntrl0.sequencer]
type=RubySequencer
clk_domain=system.cpu.clk_domain
coreid=99
dcache=system.ruby.l1_cntrl0.L1Dcache
dcache_hit_latency=1
deadlock_threshold=500000
eventq_index=0
icache=system.ruby.l1_cntrl0.L1Icache
icache_hit_latency=1
is_cpu_sequencer=true
max_outstanding_requests=16
no_retry_on_stall=false
ruby_system=system.ruby
support_data_reqs=true
support_inst_reqs=true
system=system
using_network_tester=false
using_ruby_tester=false
version=0
slave=system.cpu.icache_port system.cpu.dcache_port

[system.ruby.l1_cntrl0.unblockFromL1Cache]
type=MessageBuffer
buffer_size=0
eventq_index=0
ordered=false
randomization=false
master=system.ruby.network.slave[2]

[system.ruby.l2_cntrl0]
type=L2Cache_Controller
children=DirRequestFromL2Cache L1RequestFromL2Cache L1RequestToL2Cache L2cache responseFromL2Cache responseToL2Cache unblockToL2Cache
DirRequestFromL2Cache=system.ruby.l2_cntrl0.DirRequestFromL2Cache
L1RequestFromL2Cache=system.ruby.l2_cntrl0.L1RequestFromL2Cache
L1RequestToL2Cache=system.ruby.l2_cntrl0.L1RequestToL2Cache
L2cache=system.ruby.l2_cntrl0.L2cache
buffer_size=0
clk_domain=system.ruby.clk_domain
cluster_id=0
eventq_index=0
l2_request_latency=2
l2_response_latency=2
number_of_TBEs=256
recycle_latency=10
responseFromL2Cache=system.ruby.l2_cntrl0.responseFromL2Cache
responseToL2Cache=system.ruby.l2_cntrl0.responseToL2Cache
ruby_system=system.ruby
system=system
to_l1_latency=1
transitions_per_cycle=4
unblockToL2Cache=system.ruby.l2_cntrl0.unblockToL2Cache
version=0

[system.ruby.l2_cntrl0.DirRequestFromL2Cache]
type=MessageBuffer
buffer_size=0
eventq_index=0
ordered=false
randomization=false
master=system.ruby.network.slave[3]

[system.ruby.l2_cntrl0.L1RequestFromL2Cache]
type=MessageBuffer
buffer_size=0
eventq_index=0
ordered=false
randomization=false
master=system.ruby.network.slave[4]

[system.ruby.l2_cntrl0.L1RequestToL2Cache]
type=MessageBuffer
buffer_size=0
eventq_index=0
ordered=false
randomization=false
slave=system.ruby.network.master[3]

[system.ruby.l2_cntrl0.L2cache]
type=RubyCache
children=replacement_policy
assoc=2
block_size=0
dataAccessLatency=1
dataArrayBanks=1
eventq_index=0
is_icache=false
replacement_policy=system.ruby.l2_cntrl0.L2cache.replacement_policy
resourceStalls=false
ruby_system=system.ruby
size=512
start_index_bit=6
tagAccessLatency=1
tagArrayBanks=1

[system.ruby.l2_cntrl0.L2cache.replacement_policy]
type=PseudoLRUReplacementPolicy
assoc=2
block_size=64
eventq_index=0
size=512

[system.ruby.l2_cntrl0.responseFromL2Cache]
type=MessageBuffer
buffer_size=0
eventq_index=0
ordered=false
randomization=false
master=system.ruby.network.slave[5]

[system.ruby.l2_cntrl0.responseToL2Cache]
type=MessageBuffer
buffer_size=0
eventq_index=0
ordered=false
randomization=false
slave=system.ruby.network.master[4]

[system.ruby.l2_cntrl0.unblockToL2Cache]
type=MessageBuffer
buffer_size=0
eventq_index=0
ordered=false
randomization=false
slave=system.ruby.network.master[2]

[system.ruby.memctrl_clk_domain]
type=DerivedClockDomain
clk_divider=3
clk_domain=system.ruby.clk_domain
eventq_index=0

[system.ruby.network]
type=SimpleNetwork
children=ext_links0 ext_links1 ext_links2 int_link_buffers00 int_link_buffers01 int_link_buffers02 int_link_buffers03 int_link_buffers04 int_link_buffers05 int_link_buffers06 int_link_buffers07 int_link_buffers08 int_link_buffers09 int_link_buffers10 int_link_buffers11 int_link_buffers12 int_link_buffers13 int_link_buffers14 int_link_buffers15 int_link_buffers16 int_link_buffers17 int_links0 int_links1 int_links2 routers0 routers1 routers2 routers3
adaptive_routing=false
buffer_size=0
clk_domain=system.ruby.clk_domain
control_msg_size=8
endpoint_bandwidth=1000
eventq_index=0
ext_links=system.ruby.network.ext_links0 system.ruby.network.ext_links1 system.ruby.network.ext_links2
int_link_buffers=system.ruby.network.int_link_buffers00 system.ruby.network.int_link_buffers01 system.ruby.network.int_link_buffers02 system.ruby.network.int_link_buffers03 system.ruby.network.int_link_buffers04 system.ruby.network.int_link_buffers05 system.ruby.network.int_link_buffers06 system.ruby.network.int_link_buffers07 system.ruby.network.int_link_buffers08 system.ruby.network.int_link_buffers09 system.ruby.network.int_link_buffers10 system.ruby.network.int_link_buffers11 system.ruby.network.int_link_buffers12 system.ruby.network.int_link_buffers13 system.ruby.network.int_link_buffers14 system.ruby.network.int_link_buffers15 system.ruby.network.int_link_buffers16 system.ruby.network.int_link_buffers17
int_links=system.ruby.network.int_links0 system.ruby.network.int_links1 system.ruby.network.int_links2
netifs=
number_of_virtual_networks=3
routers=system.ruby.network.routers0 system.ruby.network.routers1 system.ruby.network.routers2 system.ruby.network.routers3
ruby_system=system.ruby
topology=Crossbar
master=system.ruby.l1_cntrl0.requestToL1Cache.slave system.ruby.l1_cntrl0.responseToL1Cache.slave system.ruby.l2_cntrl0.unblockToL2Cache.slave system.ruby.l2_cntrl0.L1RequestToL2Cache.slave system.ruby.l2_cntrl0.responseToL2Cache.slave system.ruby.dir_cntrl0.requestToDir.slave system.ruby.dir_cntrl0.responseToDir.slave
slave=system.ruby.l1_cntrl0.requestFromL1Cache.master system.ruby.l1_cntrl0.responseFromL1Cache.master system.ruby.l1_cntrl0.unblockFromL1Cache.master system.ruby.l2_cntrl0.DirRequestFromL2Cache.master system.ruby.l2_cntrl0.L1RequestFromL2Cache.master system.ruby.l2_cntrl0.responseFromL2Cache.master system.ruby.dir_cntrl0.responseFromDir.master

[system.ruby.network.ext_links0]
type=SimpleExtLink
bandwidth_factor=16
eventq_index=0
ext_node=system.ruby.l1_cntrl0
int_node=system.ruby.network.routers0
latency=1
link_id=0
weight=1

[system.ruby.network.ext_links1]
type=SimpleExtLink
bandwidth_factor=16
eventq_index=0
ext_node=system.ruby.l2_cntrl0
int_node=system.ruby.network.routers1
latency=1
link_id=1
weight=1

[system.ruby.network.ext_links2]
type=SimpleExtLink
bandwidth_factor=16
eventq_index=0
ext_node=system.ruby.dir_cntrl0
int_node=system.ruby.network.routers2
latency=1
link_id=2
weight=1

[system.ruby.network.int_link_buffers00]
type=MessageBuffer
buffer_size=0
eventq_index=0
ordered=true
randomization=false

[system.ruby.network.int_link_buffers01]
type=MessageBuffer
buffer_size=0
eventq_index=0
ordered=true
randomization=false

[system.ruby.network.int_link_buffers02]
type=MessageBuffer
buffer_size=0
eventq_index=0
ordered=true
randomization=false

[system.ruby.network.int_link_buffers03]
type=MessageBuffer
buffer_size=0
eventq_index=0
ordered=true
randomization=false

[system.ruby.network.int_link_buffers04]
type=MessageBuffer
buffer_size=0
eventq_index=0
ordered=true
randomization=false

[system.ruby.network.int_link_buffers05]
type=MessageBuffer
buffer_size=0
eventq_index=0
ordered=true
randomization=false

[system.ruby.network.int_link_buffers06]
type=MessageBuffer
buffer_size=0
eventq_index=0
ordered=true
randomization=false

[system.ruby.network.int_link_buffers07]
type=MessageBuffer
buffer_size=0
eventq_index=0
ordered=true
randomization=false

[system.ruby.network.int_link_buffers08]
type=MessageBuffer
buffer_size=0
eventq_index=0
ordered=true
randomization=false

[system.ruby.network.int_link_buffers09]
type=MessageBuffer
buffer_size=0
eventq_index=0
ordered=true
randomization=false

[system.ruby.network.int_link_buffers10]
type=MessageBuffer
buffer_size=0
eventq_index=0
ordered=true
randomization=false

[system.ruby.network.int_link_buffers11]
type=MessageBuffer
buffer_size=0
eventq_index=0
ordered=true
randomization=false

[system.ruby.network.int_link_buffers12]
type=MessageBuffer
buffer_size=0
eventq_index=0
ordered=true
randomization=false

[system.ruby.network.int_link_buffers13]
type=MessageBuffer
buffer_size=0
eventq_index=0
ordered=true
randomization=false

[system.ruby.network.int_link_buffers14]
type=MessageBuffer
buffer_size=0
eventq_index=0
ordered=true
randomization=false

[system.ruby.network.int_link_buffers15]
type=MessageBuffer
buffer_size=0
eventq_index=0
ordered=true
randomization=false

[system.ruby.network.int_link_buffers16]
type=MessageBuffer
buffer_size=0
eventq_index=0
ordered=true
randomization=false

[system.ruby.network.int_link_buffers17]
type=MessageBuffer
buffer_size=0
eventq_index=0
ordered=true
randomization=false

[system.ruby.network.int_links0]
type=SimpleIntLink
bandwidth_factor=16
eventq_index=0
latency=1
link_id=3
node_a=system.ruby.network.routers0
node_b=system.ruby.network.routers3
weight=1

[system.ruby.network.int_links1]
type=SimpleIntLink
bandwidth_factor=16
eventq_index=0
latency=1
link_id=4
node_a=system.ruby.network.routers1
node_b=system.ruby.network.routers3
weight=1

[system.ruby.network.int_links2]
type=SimpleIntLink
bandwidth_factor=16
eventq_index=0
latency=1
link_id=5
node_a=system.ruby.network.routers2
node_b=system.ruby.network.routers3
weight=1

[system.ruby.network.routers0]
type=Switch
children=port_buffers00 port_buffers01 port_buffers02 port_buffers03 port_buffers04 port_buffers05 port_buffers06 port_buffers07 port_buffers08 port_buffers09 port_buffers10 port_buffers11
clk_domain=system.ruby.clk_domain
eventq_index=0
port_buffers=system.ruby.network.routers0.port_buffers00 system.ruby.network.routers0.port_buffers01 system.ruby.network.routers0.port_buffers02 system.ruby.network.routers0.port_buffers03 system.ruby.network.routers0.port_buffers04 system.ruby.network.routers0.port_buffers05 system.ruby.network.routers0.port_buffers06 system.ruby.network.routers0.port_buffers07 system.ruby.network.routers0.port_buffers08 system.ruby.network.routers0.port_buffers09 system.ruby.network.routers0.port_buffers10 system.ruby.network.routers0.port_buffers11
router_id=0
virt_nets=3

[system.ruby.network.routers0.port_buffers00]
type=MessageBuffer
buffer_size=0
eventq_index=0
ordered=true
randomization=false

[system.ruby.network.routers0.port_buffers01]
type=MessageBuffer
buffer_size=0
eventq_index=0
ordered=true
randomization=false

[system.ruby.network.routers0.port_buffers02]
type=MessageBuffer
buffer_size=0
eventq_index=0
ordered=true
randomization=false

[system.ruby.network.routers0.port_buffers03]
type=MessageBuffer
buffer_size=0
eventq_index=0
ordered=true
randomization=false

[system.ruby.network.routers0.port_buffers04]
type=MessageBuffer
buffer_size=0
eventq_index=0
ordered=true
randomization=false

[system.ruby.network.routers0.port_buffers05]
type=MessageBuffer
buffer_size=0
eventq_index=0
ordered=true
randomization=false

[system.ruby.network.routers0.port_buffers06]
type=MessageBuffer
buffer_size=0
eventq_index=0
ordered=true
randomization=false

[system.ruby.network.routers0.port_buffers07]
type=MessageBuffer
buffer_size=0
eventq_index=0
ordered=true
randomization=false

[system.ruby.network.routers0.port_buffers08]
type=MessageBuffer
buffer_size=0
eventq_index=0
ordered=true
randomization=false

[system.ruby.network.routers0.port_buffers09]
type=MessageBuffer
buffer_size=0
eventq_index=0
ordered=true
randomization=false

[system.ruby.network.routers0.port_buffers10]
type=MessageBuffer
buffer_size=0
eventq_index=0
ordered=true
randomization=false

[system.ruby.network.routers0.port_buffers11]
type=MessageBuffer
buffer_size=0
eventq_index=0
ordered=true
randomization=false

[system.ruby.network.routers1]
type=Switch
children=port_buffers00 port_buffers01 port_buffers02 port_buffers03 port_buffers04 port_buffers05 port_buffers06 port_buffers07 port_buffers08 port_buffers09 port_buffers10 port_buffers11
clk_domain=system.ruby.clk_domain
eventq_index=0
port_buffers=system.ruby.network.routers1.port_buffers00 system.ruby.network.routers1.port_buffers01 system.ruby.network.routers1.port_buffers02 system.ruby.network.routers1.port_buffers03 system.ruby.network.routers1.port_buffers04 system.ruby.network.routers1.port_buffers05 system.ruby.network.routers1.port_buffers06 system.ruby.network.routers1.port_buffers07 system.ruby.network.routers1.port_buffers08 system.ruby.network.routers1.port_buffers09 system.ruby.network.routers1.port_buffers10 system.ruby.network.routers1.port_buffers11
router_id=1
virt_nets=3

[system.ruby.network.routers1.port_buffers00]
type=MessageBuffer
buffer_size=0
eventq_index=0
ordered=true
randomization=false

[system.ruby.network.routers1.port_buffers01]
type=MessageBuffer
buffer_size=0
eventq_index=0
ordered=true
randomization=false

[system.ruby.network.routers1.port_buffers02]
type=MessageBuffer
buffer_size=0
eventq_index=0
ordered=true
randomization=false

[system.ruby.network.routers1.port_buffers03]
type=MessageBuffer
buffer_size=0
eventq_index=0
ordered=true
randomization=false

[system.ruby.network.routers1.port_buffers04]
type=MessageBuffer
buffer_size=0
eventq_index=0
ordered=true
randomization=false

[system.ruby.network.routers1.port_buffers05]
type=MessageBuffer
buffer_size=0
eventq_index=0
ordered=true
randomization=false

[system.ruby.network.routers1.port_buffers06]
type=MessageBuffer
buffer_size=0
eventq_index=0
ordered=true
randomization=false

[system.ruby.network.routers1.port_buffers07]
type=MessageBuffer
buffer_size=0
eventq_index=0
ordered=true
randomization=false

[system.ruby.network.routers1.port_buffers08]
type=MessageBuffer
buffer_size=0
eventq_index=0
ordered=true
randomization=false

[system.ruby.network.routers1.port_buffers09]
type=MessageBuffer
buffer_size=0
eventq_index=0
ordered=true
randomization=false

[system.ruby.network.routers1.port_buffers10]
type=MessageBuffer
buffer_size=0
eventq_index=0
ordered=true
randomization=false

[system.ruby.network.routers1.port_buffers11]
type=MessageBuffer
buffer_size=0
eventq_index=0
ordered=true
randomization=false

[system.ruby.network.routers2]
type=Switch
children=port_buffers00 port_buffers01 port_buffers02 port_buffers03 port_buffers04 port_buffers05 port_buffers06 port_buffers07 port_buffers08 port_buffers09 port_buffers10 port_buffers11
clk_domain=system.ruby.clk_domain
eventq_index=0
port_buffers=system.ruby.network.routers2.port_buffers00 system.ruby.network.routers2.port_buffers01 system.ruby.network.routers2.port_buffers02 system.ruby.network.routers2.port_buffers03 system.ruby.network.routers2.port_buffers04 system.ruby.network.routers2.port_buffers05 system.ruby.network.routers2.port_buffers06 system.ruby.network.routers2.port_buffers07 system.ruby.network.routers2.port_buffers08 system.ruby.network.routers2.port_buffers09 system.ruby.network.routers2.port_buffers10 system.ruby.network.routers2.port_buffers11
router_id=2
virt_nets=3

[system.ruby.network.routers2.port_buffers00]
type=MessageBuffer
buffer_size=0
eventq_index=0
ordered=true
randomization=false

[system.ruby.network.routers2.port_buffers01]
type=MessageBuffer
buffer_size=0
eventq_index=0
ordered=true
randomization=false

[system.ruby.network.routers2.port_buffers02]
type=MessageBuffer
buffer_size=0
eventq_index=0
ordered=true
randomization=false

[system.ruby.network.routers2.port_buffers03]
type=MessageBuffer
buffer_size=0
eventq_index=0
ordered=true
randomization=false

[system.ruby.network.routers2.port_buffers04]
type=MessageBuffer
buffer_size=0
eventq_index=0
ordered=true
randomization=false

[system.ruby.network.routers2.port_buffers05]
type=MessageBuffer
buffer_size=0
eventq_index=0
ordered=true
randomization=false

[system.ruby.network.routers2.port_buffers06]
type=MessageBuffer
buffer_size=0
eventq_index=0
ordered=true
randomization=false

[system.ruby.network.routers2.port_buffers07]
type=MessageBuffer
buffer_size=0
eventq_index=0
ordered=true
randomization=false

[system.ruby.network.routers2.port_buffers08]
type=MessageBuffer
buffer_size=0
eventq_index=0
ordered=true
randomization=false

[system.ruby.network.routers2.port_buffers09]
type=MessageBuffer
buffer_size=0
eventq_index=0
ordered=true
randomization=false

[system.ruby.network.routers2.port_buffers10]
type=MessageBuffer
buffer_size=0
eventq_index=0
ordered=true
randomization=false

[system.ruby.network.routers2.port_buffers11]
type=MessageBuffer
buffer_size=0
eventq_index=0
ordered=true
randomization=false

[system.ruby.network.routers3]
type=Switch
children=port_buffers00 port_buffers01 port_buffers02 port_buffers03 port_buffers04 port_buffers05 port_buffers06 port_buffers07 port_buffers08 port_buffers09 port_buffers10 port_buffers11 port_buffers12 port_buffers13 port_buffers14 port_buffers15 port_buffers16 port_buffers17
clk_domain=system.ruby.clk_domain
eventq_index=0
port_buffers=system.ruby.network.routers3.port_buffers00 system.ruby.network.routers3.port_buffers01 system.ruby.network.routers3.port_buffers02 system.ruby.network.routers3.port_buffers03 system.ruby.network.routers3.port_buffers04 system.ruby.network.routers3.port_buffers05 system.ruby.network.routers3.port_buffers06 system.ruby.network.routers3.port_buffers07 system.ruby.network.routers3.port_buffers08 system.ruby.network.routers3.port_buffers09 system.ruby.network.routers3.port_buffers10 system.ruby.network.routers3.port_buffers11 system.ruby.network.routers3.port_buffers12 system.ruby.network.routers3.port_buffers13 system.ruby.network.routers3.port_buffers14 system.ruby.network.routers3.port_buffers15 system.ruby.network.routers3.port_buffers16 system.ruby.network.routers3.port_buffers17
router_id=3
virt_nets=3

[system.ruby.network.routers3.port_buffers00]
type=MessageBuffer
buffer_size=0
eventq_index=0
ordered=true
randomization=false

[system.ruby.network.routers3.port_buffers01]
type=MessageBuffer
buffer_size=0
eventq_index=0
ordered=true
randomization=false

[system.ruby.network.routers3.port_buffers02]
type=MessageBuffer
buffer_size=0
eventq_index=0
ordered=true
randomization=false

[system.ruby.network.routers3.port_buffers03]
type=MessageBuffer
buffer_size=0
eventq_index=0
ordered=true
randomization=false

[system.ruby.network.routers3.port_buffers04]
type=MessageBuffer
buffer_size=0
eventq_index=0
ordered=true
randomization=false

[system.ruby.network.routers3.port_buffers05]
type=MessageBuffer
buffer_size=0
eventq_index=0
ordered=true
randomization=false

[system.ruby.network.routers3.port_buffers06]
type=MessageBuffer
buffer_size=0
eventq_index=0
ordered=true
randomization=false

[system.ruby.network.routers3.port_buffers07]
type=MessageBuffer
buffer_size=0
eventq_index=0
ordered=true
randomization=false

[system.ruby.network.routers3.port_buffers08]
type=MessageBuffer
buffer_size=0
eventq_index=0
ordered=true
randomization=false

[system.ruby.network.routers3.port_buffers09]
type=MessageBuffer
buffer_size=0
eventq_index=0
ordered=true
randomization=false

[system.ruby.network.routers3.port_buffers10]
type=MessageBuffer
buffer_size=0
eventq_index=0
ordered=true
randomization=false

[system.ruby.network.routers3.port_buffers11]
type=MessageBuffer
buffer_size=0
eventq_index=0
ordered=true
randomization=false

[system.ruby.network.routers3.port_buffers12]
type=MessageBuffer
buffer_size=0
eventq_index=0
ordered=true
randomization=false

[system.ruby.network.routers3.port_buffers13]
type=MessageBuffer
buffer_size=0
eventq_index=0
ordered=true
randomization=false

[system.ruby.network.routers3.port_buffers14]
type=MessageBuffer
buffer_size=0
eventq_index=0
ordered=true
randomization=false

[system.ruby.network.routers3.port_buffers15]
type=MessageBuffer
buffer_size=0
eventq_index=0
ordered=true
randomization=false

[system.ruby.network.routers3.port_buffers16]
type=MessageBuffer
buffer_size=0
eventq_index=0
ordered=true
randomization=false

[system.ruby.network.routers3.port_buffers17]
type=MessageBuffer
buffer_size=0
eventq_index=0
ordered=true
randomization=false

[system.sys_port_proxy]
type=RubyPortProxy
clk_domain=system.clk_domain
eventq_index=0
is_cpu_sequencer=true
no_retry_on_stall=false
ruby_system=system.ruby
support_data_reqs=true
support_inst_reqs=true
system=system
using_ruby_tester=false
version=0
slave=system.system_port

[system.voltage_domain]
type=VoltageDomain
eventq_index=0
voltage=1.000000

